C_001
Actelion Java MolfileCreator 1.0

  7  7  0  0  0  0  0  0  0  0999 V2000
    0.9706    0.9945   -0.0000 S   0  0  0  0  0  0  0  0  0  0  0  0
    0.8660   -0.0000   -0.0000 C   0  0  0  0  0  0  0  0  0  0  0  0
    1.9487    1.2024   -0.0000 C   0  0  0  0  0  0  0  0  0  0  0  0
    0.0000   -0.5000   -0.0000 O   0  0  0  0  0  0  0  0  0  0  0  0
    1.7796   -0.4067   -0.0000 N   0  0  0  0  0  0  0  0  0  0  0  0
    2.4487    0.3364   -0.0000 C   0  0  0  0  0  0  0  0  0  0  0  0
    3.4432    0.2319   -0.0000 O   0  0  0  0  0  0  0  0  0  0  0  0
  1  2  1  0  0  0  0
  1  3  1  0  0  0  0
  2  4  2  0  0  0  0
  2  5  1  0  0  0  0
  3  6  1  0  0  0  0
  6  7  2  0  0  0  0
  5  6  1  0  0  0  0
M  END
>  <S/N>
1

>  <Compound ID>
C_001

>  <PubChem CID>
5437

>  <Isomeric SMILES>
C1C(=O)NC(=O)S1

>  <IC50 (�M)>
0.54

>  <pIC50>
6.27

$$$$
C_002
Actelion Java MolfileCreator 1.0

  8  7  0  0  0  0  0  0  0  0999 V2000
    2.5981    1.0000   -0.0000 O   0  0  0  0  0  0  0  0  0  0  0  0
    2.5981   -0.0000   -0.0000 C   0  0  0  0  0  0  0  0  0  0  0  0
    3.4641   -0.5000   -0.0000 O   0  0  0  0  0  0  0  0  0  0  0  0
    1.7321   -0.5000   -0.0000 C   0  0  0  0  0  0  0  0  0  0  0  0
    4.3301   -0.0000   -0.0000 C   0  0  0  0  0  0  0  0  0  0  0  0
    0.8660   -0.0000   -0.0000 C   0  0  0  0  0  0  0  0  0  0  0  0
    0.8660    1.0000   -0.0000 O   0  0  0  0  0  0  0  0  0  0  0  0
    0.0000   -0.5000   -0.0000 C   0  0  0  0  0  0  0  0  0  0  0  0
  1  2  2  0  0  0  0
  2  3  1  0  0  0  0
  2  4  1  0  0  0  0
  3  5  1  0  0  0  0
  4  6  1  0  0  0  0
  6  7  2  0  0  0  0
  6  8  1  0  0  0  0
M  END
>  <S/N>
2

>  <Compound ID>
C_002

>  <PubChem CID>
7757

>  <Isomeric SMILES>
CC(=O)CC(=O)OC

>  <IC50 (�M)>
19

>  <pIC50>
4.72

$$$$
C_003
Actelion Java MolfileCreator 1.0

 11 10  0  0  0  0  0  0  0  0999 V2000
    4.3301    1.0000   -0.0000 O   0  0  0  0  0  0  0  0  0  0  0  0
    4.3301   -0.0000   -0.0000 C   0  0  0  0  0  0  0  0  0  0  0  0
    5.1962   -0.5000   -0.0000 O   0  0  0  0  0  0  0  0  0  0  0  0
    3.4641   -0.5000   -0.0000 C   0  0  0  0  0  0  0  0  0  0  0  0
    6.0622   -0.0000   -0.0000 C   0  0  0  0  0  0  0  0  0  0  0  0
    2.5981   -0.0000   -0.0000 C   0  0  0  0  0  0  0  0  0  0  0  0
    6.9282   -0.5000   -0.0000 C   0  0  0  0  0  0  0  0  0  0  0  0
    2.5981    1.0000   -0.0000 O   0  0  0  0  0  0  0  0  0  0  0  0
    1.7321   -0.5000   -0.0000 O   0  0  0  0  0  0  0  0  0  0  0  0
    0.8660   -0.0000   -0.0000 C   0  0  0  0  0  0  0  0  0  0  0  0
    0.0000   -0.5000   -0.0000 C   0  0  0  0  0  0  0  0  0  0  0  0
  1  2  2  0  0  0  0
  2  3  1  0  0  0  0
  2  4  1  0  0  0  0
  3  5  1  0  0  0  0
  4  6  1  0  0  0  0
  5  7  1  0  0  0  0
  6  8  2  0  0  0  0
  6  9  1  0  0  0  0
  9 10  1  0  0  0  0
 10 11  1  0  0  0  0
M  END
>  <S/N>
3

>  <Compound ID>
C_003

>  <PubChem CID>
7761

>  <Isomeric SMILES>
CCOC(=O)CC(=O)OCC

>  <IC50 (�M)>
5

>  <pIC50>
5.3

$$$$
C_004
Actelion Java MolfileCreator 1.0

 44 47  0  0  1  0  0  0  0  0999 V2000
    1.7321   -1.5000   -0.0000 O   0  0  0  0  0  0  0  0  0  0  0  0
    1.7321   -0.5000   -0.0000 C   0  0  0  0  0  0  0  0  0  0  0  0
    2.5981   -2.0000   -0.0000 C   0  0  0  0  0  0  0  0  0  0  0  0
    0.8660   -0.0000   -0.0000 O   0  0  0  0  0  0  0  0  0  0  0  0
    2.5981    0.0000   -0.0000 C   0  0  0  0  0  0  0  0  0  0  0  0
    3.4641   -1.5000   -0.0000 C   0  0  0  0  0  0  0  0  0  0  0  0
    2.5981   -3.0000   -0.0000 C   0  0  0  0  0  0  0  0  0  0  0  0
    0.0000   -0.5000   -0.0000 C   0  0  0  0  0  0  0  0  0  0  0  0
    2.5981    1.0000   -0.0000 O   0  0  0  0  0  0  0  0  0  0  0  0
    3.4641   -0.5000   -0.0000 C   0  0  0  0  0  0  0  0  0  0  0  0
    4.3301   -2.0000   -0.0000 O   0  0  0  0  0  0  0  0  0  0  0  0
    1.7321   -3.5000   -0.0000 O   0  0  0  0  0  0  0  0  0  0  0  0
    0.0000   -1.5000   -0.0000 C   0  0  0  0  0  0  0  0  0  0  0  0
   -0.8660   -0.0000   -0.0000 C   0  0  0  0  0  0  0  0  0  0  0  0
    4.3301    0.0000   -0.0000 O   0  0  0  0  0  0  0  0  0  0  0  0
    5.1962   -1.5000   -0.0000 C   0  0  0  0  0  0  0  0  0  0  0  0
    0.8660   -2.0000   -0.0000 O   0  0  0  0  0  0  0  0  0  0  0  0
   -0.8660   -2.0000   -0.0000 C   0  0  0  0  0  0  0  0  0  0  0  0
   -1.7321   -0.5000   -0.0000 O   0  0  0  0  0  0  0  0  0  0  0  0
   -0.8660    1.0000   -0.0000 C   0  0  0  0  0  0  0  0  0  0  0  0
    5.1962   -0.5000   -0.0000 O   0  0  0  0  0  0  0  0  0  0  0  0
    6.0622   -2.0000   -0.0000 C   0  0  0  0  0  0  0  0  0  0  0  0
   -0.8660   -3.0000   -0.0000 O   0  0  0  0  0  0  0  0  0  0  0  0
   -1.7321   -1.5000   -0.0000 C   0  0  0  0  0  0  0  0  0  0  0  0
   -0.0000    1.5000   -0.0000 O   0  0  0  0  0  0  0  0  0  0  0  0
    6.0622    0.0000   -0.0000 C   0  0  0  0  0  0  0  0  0  0  0  0
    6.0622   -3.0000   -0.0000 O   0  0  0  0  0  0  0  0  0  0  0  0
    6.9282   -1.5000   -0.0000 C   0  0  0  0  0  0  0  0  0  0  0  0
   -2.5981   -2.0000   -0.0000 O   0  0  0  0  0  0  0  0  0  0  0  0
    6.9282   -0.5000   -0.0000 C   0  0  0  0  0  0  0  0  0  0  0  0
    6.0622    1.0000   -0.0000 C   0  0  0  0  0  0  0  0  0  0  0  0
    7.7942   -2.0000   -0.0000 O   0  0  0  0  0  0  0  0  0  0  0  0
    7.7942    0.0000   -0.0000 N   0  0  0  0  0  0  0  0  0  0  0  0
    7.7942    1.0000   -0.0000 C   0  0  0  0  0  0  0  0  0  0  0  0
    6.9282    1.5000   -0.0000 C   0  0  0  0  0  0  0  0  0  0  0  0
    8.6603    1.5000   -0.0000 C   0  0  0  0  0  0  0  0  0  0  0  0
    6.9282    2.5000   -0.0000 C   0  0  0  0  0  0  0  0  0  0  0  0
    9.5263    1.0000   -0.0000 O   0  0  0  0  0  0  0  0  0  0  0  0
    8.6603    2.5000   -0.0000 C   0  0  0  0  0  0  0  0  0  0  0  0
    7.7942    3.0000   -0.0000 C   0  0  0  0  0  0  0  0  0  0  0  0
    6.0622    3.0000   -0.0000 C   0  0  0  0  0  0  0  0  0  0  0  0
    9.5263    3.0000   -0.0000 O   0  0  0  0  0  0  0  0  0  0  0  0
    7.7942    4.0000   -0.0000 O   0  0  0  0  0  0  0  0  0  0  0  0
    6.0622    4.0000   -0.0000 O   0  0  0  0  0  0  0  0  0  0  0  0
  1  2  1  0  0  0  0
  1  3  1  0  0  0  0
  2  4  1  6  0  0  0
  2  5  1  0  0  0  0
  3  6  1  0  0  0  0
  3  7  1  1  0  0  0
  8  4  1  1  0  0  0
  5  9  1  6  0  0  0
  5 10  1  0  0  0  0
  6 11  1  6  0  0  0
  7 12  1  0  0  0  0
  8 13  1  0  0  0  0
  8 14  1  0  0  0  0
 10 15  1  1  0  0  0
 16 11  1  1  0  0  0
 13 17  1  6  0  0  0
 13 18  1  0  0  0  0
 14 19  1  0  0  0  0
 14 20  1  6  0  0  0
 16 21  1  0  0  0  0
 16 22  1  0  0  0  0
 18 23  1  1  0  0  0
 18 24  1  0  0  0  0
 20 25  1  0  0  0  0
 21 26  1  0  0  0  0
 22 27  1  1  0  0  0
 22 28  1  0  0  0  0
 24 29  1  0  0  0  0
 26 30  1  0  0  0  0
 26 31  1  6  0  0  0
 28 32  1  6  0  0  0
 30 33  1  1  0  0  0
 34 33  1  1  0  0  0
 34 35  1  0  0  0  0
 34 36  1  0  0  0  0
 35 37  2  0  0  0  0
 36 38  1  1  0  0  0
 36 39  1  0  0  0  0
 37 40  1  0  0  0  0
 37 41  1  0  0  0  0
 39 42  1  6  0  0  0
 40 43  1  1  0  0  0
 41 44  1  0  0  0  0
  6 10  1  0  0  0  0
 19 24  1  0  0  0  0
 28 30  1  0  0  0  0
 39 40  1  0  0  0  0
M  END
>  <S/N>
4

>  <Compound ID>
C_004

>  <PubChem CID>
41774

>  <Isomeric SMILES>
C[C@@H]1[C@H]([C@@H]([C@H]([C@H](O1)O[C@@H]2[C@H](O[C@@H]([C@@H]([C@H]2O)O)O[C@@H]3[C@H](OC([C@@H]([C@H]3O)O)O)CO)CO)O)O)N[C@H]4C=C([C@H]([C@@H]([C@H]4O)O)O)CO

>  <IC50 (�M)>
2

>  <pIC50>
5.7

$$$$
C_005
Actelion Java MolfileCreator 1.0

 15 15  0  0  1  0  0  0  0  0999 V2000
    9.0933   -3.0000   -0.0000 O   0  0  0  0  0  0  0  0  0  0  0  0
    7.7942   -2.2500   -0.0000 C   0  0  0  0  0  0  0  0  0  0  0  0
    7.7942   -0.7500   -0.0000 C   0  0  0  0  0  0  0  0  0  0  0  0
    6.4952   -3.0000   -0.0000 C   0  0  0  0  0  0  0  0  0  0  0  0
    9.0933   -0.0000   -0.0000 O   0  0  0  0  0  0  0  0  0  0  0  0
    6.4952    0.0000   -0.0000 C   0  0  0  0  0  0  0  0  0  0  0  0
    6.4952   -4.5000   -0.0000 O   0  0  0  0  0  0  0  0  0  0  0  0
    5.1962   -2.2500   -0.0000 C   0  0  0  0  0  0  0  0  0  0  0  0
    5.1962   -0.7500   -0.0000 N   0  0  0  0  0  0  0  0  0  0  0  0
    6.4952    1.5000   -0.0000 C   0  0  0  0  0  0  0  0  0  0  0  0
    3.8971   -0.0000   -0.0000 C   0  0  0  0  0  0  0  0  0  0  0  0
    5.1962    2.2500   -0.0000 O   0  0  0  0  0  0  0  0  0  0  0  0
    2.5981   -0.7500   -0.0000 C   0  0  0  0  0  0  0  0  0  0  0  0
    1.2990   -0.0000   -0.0000 C   0  0  0  0  0  0  0  0  0  0  0  0
    0.0000   -0.7500   -0.0000 C   0  0  0  0  0  0  0  0  0  0  0  0
  2  1  1  6  0  0  0
  2  3  1  0  0  0  0
  2  4  1  0  0  0  0
  3  5  1  1  0  0  0
  3  6  1  0  0  0  0
  4  7  1  1  0  0  0
  4  8  1  0  0  0  0
  6  9  1  0  0  0  0
  6 10  1  6  0  0  0
  9 11  1  0  0  0  0
 10 12  1  0  0  0  0
 11 13  1  0  0  0  0
 13 14  1  0  0  0  0
 14 15  1  0  0  0  0
  8  9  1  0  0  0  0
M  END
>  <S/N>
5

>  <Compound ID>
C_005

>  <PubChem CID>
51634

>  <Isomeric SMILES>
CCCCN1C[C@@H]([C@H]([C@@H]([C@H]1CO)O)O)O

>  <IC50 (�M)>
2.1

>  <pIC50>
5.68

$$$$
C_006
Actelion Java MolfileCreator 1.0

 21 23  0  0  1  0  0  0  0  0999 V2000
    1.7321   -0.5000   -0.0000 O   0  0  0  0  0  0  0  0  0  0  0  0
    2.5981   -0.0000   -0.0000 C   0  0  0  0  0  0  0  0  0  0  0  0
    0.8660   -0.0000   -0.0000 C   0  0  0  0  0  0  0  0  0  0  0  0
    2.5981    1.0000   -0.0000 C   0  0  0  0  0  0  0  0  0  0  0  0
    3.4641   -0.5000   -0.0000 C   0  0  0  0  0  0  0  0  0  0  0  0
    0.0000   -0.5000   -0.0000 C   0  0  0  0  0  0  0  0  0  0  0  0
    0.8660    1.0000   -0.0000 C   0  0  0  0  0  0  0  0  0  0  0  0
    3.4641    1.5000   -0.0000 C   0  0  0  0  0  0  0  0  0  0  0  0
    1.7321    1.5000   -0.0000 C   0  0  0  0  0  0  0  0  0  0  0  0
    4.3301   -0.0000   -0.0000 C   0  0  0  0  0  0  0  0  0  0  0  0
   -0.8660    0.0000   -0.0000 C   0  0  0  0  0  0  0  0  0  0  0  0
   -0.0000   -1.5000   -0.0000 C   0  0  0  0  0  0  0  0  0  0  0  0
    0.0000    1.5000   -0.0000 O   0  0  0  0  0  0  0  0  0  0  0  0
    3.4641    2.5000   -0.0000 O   0  0  0  0  0  0  0  0  0  0  0  0
    4.3301    1.0000   -0.0000 C   0  0  0  0  0  0  0  0  0  0  0  0
    5.1962   -0.5000   -0.0000 O   0  0  0  0  0  0  0  0  0  0  0  0
   -1.7321   -0.5000   -0.0000 C   0  0  0  0  0  0  0  0  0  0  0  0
   -0.8660   -2.0000   -0.0000 C   0  0  0  0  0  0  0  0  0  0  0  0
   -2.5981    0.0000   -0.0000 O   0  0  0  0  0  0  0  0  0  0  0  0
   -1.7321   -1.5000   -0.0000 C   0  0  0  0  0  0  0  0  0  0  0  0
   -2.5981   -2.0000   -0.0000 O   0  0  0  0  0  0  0  0  0  0  0  0
  1  2  1  0  0  0  0
  1  3  1  0  0  0  0
  2  4  2  0  0  0  0
  2  5  1  0  0  0  0
  3  6  1  1  0  0  0
  3  7  1  0  0  0  0
  4  8  1  0  0  0  0
  4  9  1  0  0  0  0
  5 10  2  0  0  0  0
  6 11  2  0  0  0  0
  6 12  1  0  0  0  0
  7 13  1  6  0  0  0
  8 14  1  0  0  0  0
  8 15  2  0  0  0  0
 10 16  1  0  0  0  0
 11 17  1  0  0  0  0
 12 18  2  0  0  0  0
 17 19  1  0  0  0  0
 17 20  2  0  0  0  0
 20 21  1  0  0  0  0
  7  9  1  0  0  0  0
 10 15  1  0  0  0  0
 18 20  1  0  0  0  0
M  END
>  <S/N>
6

>  <Compound ID>
C_006

>  <PubChem CID>
73160

>  <Isomeric SMILES>
C1[C@H]([C@@H](OC2=CC(=CC(=C21)O)O)C3=CC(=C(C=C3)O)O)O

>  <IC50 (�M)>
53.8

>  <pIC50>
4.27

$$$$
C_007
Actelion Java MolfileCreator 1.0

 12 12  0  0  1  0  0  0  0  0999 V2000
    4.3301   -0.0000   -0.0000 O   0  0  0  0  0  0  0  0  0  0  0  0
    3.4641   -0.5000   -0.0000 C   0  0  0  0  0  0  0  0  0  0  0  0
    2.5981   -0.0000   -0.0000 C   0  0  0  0  0  0  0  0  0  0  0  0
    3.4641   -1.5000   -0.0000 C   0  0  0  0  0  0  0  0  0  0  0  0
    2.5981    1.0000   -0.0000 O   0  0  0  0  0  0  0  0  0  0  0  0
    1.7321   -0.5000   -0.0000 C   0  0  0  0  0  0  0  0  0  0  0  0
    4.3301   -2.0000   -0.0000 O   0  0  0  0  0  0  0  0  0  0  0  0
    2.5981   -2.0000   -0.0000 C   0  0  0  0  0  0  0  0  0  0  0  0
    1.7321   -1.5000   -0.0000 N   0  0  0  0  0  0  0  0  0  0  0  0
    0.8660   -0.0000   -0.0000 C   0  0  0  0  0  0  0  0  0  0  0  0
    0.8660   -2.0000   -0.0000 C   0  0  0  0  0  0  0  0  0  0  0  0
    0.0000   -0.5000   -0.0000 O   0  0  0  0  0  0  0  0  0  0  0  0
  2  1  1  6  0  0  0
  2  3  1  0  0  0  0
  2  4  1  0  0  0  0
  3  5  1  1  0  0  0
  3  6  1  0  0  0  0
  4  7  1  1  0  0  0
  4  8  1  0  0  0  0
  6  9  1  0  0  0  0
  6 10  1  6  0  0  0
  9 11  1  0  0  0  0
 10 12  1  0  0  0  0
  8  9  1  0  0  0  0
M  END
>  <S/N>
7

>  <Compound ID>
C_007

>  <PubChem CID>
92381

>  <Isomeric SMILES>
CN1C[C@@H]([C@H]([C@@H]([C@H]1CO)O)O)O

>  <IC50 (�M)>
0.12

>  <pIC50>
6.92

$$$$
C_008
Actelion Java MolfileCreator 1.0

 15 16  0  0  0  0  0  0  0  0999 V2000
    6.6520   -4.4918   -0.0000 S   0  0  0  0  0  0  0  0  0  0  0  0
    8.1192   -4.8037   -0.0000 C   0  0  0  0  0  0  0  0  0  0  0  0
    6.4952   -3.0000   -0.0000 C   0  0  0  0  0  0  0  0  0  0  0  0
    8.8692   -3.5046   -0.0000 N   0  0  0  0  0  0  0  0  0  0  0  0
    8.7293   -6.1740   -0.0000 N   0  0  0  0  0  0  0  0  0  0  0  0
    7.8655   -2.3899   -0.0000 N   0  0  0  0  0  0  0  0  0  0  0  0
    5.1962   -2.2500   -0.0000 C   0  0  0  0  0  0  0  0  0  0  0  0
    5.1962   -0.7500   -0.0000 C   0  0  0  0  0  0  0  0  0  0  0  0
    3.8971   -3.0000   -0.0000 C   0  0  0  0  0  0  0  0  0  0  0  0
    3.8971    0.0000   -0.0000 C   0  0  0  0  0  0  0  0  0  0  0  0
    2.5981   -2.2500   -0.0000 C   0  0  0  0  0  0  0  0  0  0  0  0
    2.5981   -0.7500   -0.0000 C   0  0  0  0  0  0  0  0  0  0  0  0
    1.2990   -0.0000   -0.0000 N   0  0  0  0  0  0  0  0  0  0  0  0
    1.2990    1.5000   -0.0000 O   0  0  0  0  0  0  0  0  0  0  0  0
    0.0000   -0.7500   -0.0000 O   0  0  0  0  0  0  0  0  0  0  0  0
  1  2  1  0  0  0  0
  1  3  1  0  0  0  0
  2  4  2  0  0  0  0
  2  5  1  0  0  0  0
  3  6  2  0  0  0  0
  3  7  1  0  0  0  0
  7  8  2  0  0  0  0
  7  9  1  0  0  0  0
  8 10  1  0  0  0  0
  9 11  2  0  0  0  0
 10 12  2  0  0  0  0
 12 13  1  0  0  0  0
 13 14  2  0  0  0  0
 13 15  1  0  0  0  0
  4  6  1  0  0  0  0
 11 12  1  0  0  0  0
M  CHG  2  13   1  15  -1
M  END
>  <S/N>
8

>  <Compound ID>
C_008

>  <PubChem CID>
96637

>  <Isomeric SMILES>
C1=CC(=CC=C1C2=NN=C(S2)N)[N+](=O)[O-]

>  <IC50 (�M)>
2.3

>  <pIC50>
5.64

$$$$
C_009
Actelion Java MolfileCreator 1.0

 25 27  0  0  0  0  0  0  0  0999 V2000
    0.8660   -0.0000   -0.0000 O   0  0  0  0  0  0  0  0  0  0  0  0
    1.7321   -0.5000   -0.0000 C   0  0  0  0  0  0  0  0  0  0  0  0
    0.0000   -0.5000   -0.0000 C   0  0  0  0  0  0  0  0  0  0  0  0
    1.7321   -1.5000   -0.0000 C   0  0  0  0  0  0  0  0  0  0  0  0
    2.5981   -0.0000   -0.0000 C   0  0  0  0  0  0  0  0  0  0  0  0
    0.8660   -2.0000   -0.0000 O   0  0  0  0  0  0  0  0  0  0  0  0
    2.5981   -2.0000   -0.0000 C   0  0  0  0  0  0  0  0  0  0  0  0
    2.5981    1.0000   -0.0000 C   0  0  0  0  0  0  0  0  0  0  0  0
    3.4641   -0.5000   -0.0000 C   0  0  0  0  0  0  0  0  0  0  0  0
    3.4641   -1.5000   -0.0000 C   0  0  0  0  0  0  0  0  0  0  0  0
    2.5981   -3.0000   -0.0000 C   0  0  0  0  0  0  0  0  0  0  0  0
    3.4641    1.5000   -0.0000 C   0  0  0  0  0  0  0  0  0  0  0  0
    1.7321    1.5000   -0.0000 C   0  0  0  0  0  0  0  0  0  0  0  0
    4.3301   -2.0000   -0.0000 O   0  0  0  0  0  0  0  0  0  0  0  0
    1.7321   -3.5000   -0.0000 C   0  0  0  0  0  0  0  0  0  0  0  0
    3.4641   -3.5000   -0.0000 C   0  0  0  0  0  0  0  0  0  0  0  0
    3.4641    2.5000   -0.0000 C   0  0  0  0  0  0  0  0  0  0  0  0
    1.7321    2.5000   -0.0000 C   0  0  0  0  0  0  0  0  0  0  0  0
    5.1962   -1.5000   -0.0000 C   0  0  0  0  0  0  0  0  0  0  0  0
    1.7321   -4.5000   -0.0000 C   0  0  0  0  0  0  0  0  0  0  0  0
    3.4641   -4.5000   -0.0000 C   0  0  0  0  0  0  0  0  0  0  0  0
    2.5981    3.0000   -0.0000 C   0  0  0  0  0  0  0  0  0  0  0  0
    2.5981   -5.0000   -0.0000 C   0  0  0  0  0  0  0  0  0  0  0  0
    2.5981    4.0000   -0.0000 O   0  0  0  0  0  0  0  0  0  0  0  0
    2.5981   -6.0000   -0.0000 O   0  0  0  0  0  0  0  0  0  0  0  0
  1  2  1  0  0  0  0
  1  3  1  0  0  0  0
  2  4  2  0  0  0  0
  2  5  1  0  0  0  0
  4  6  1  0  0  0  0
  4  7  1  0  0  0  0
  5  8  1  0  0  0  0
  5  9  2  0  0  0  0
  7 10  2  0  0  0  0
  7 11  1  0  0  0  0
  8 12  2  0  0  0  0
  8 13  1  0  0  0  0
 10 14  1  0  0  0  0
 11 15  2  0  0  0  0
 11 16  1  0  0  0  0
 12 17  1  0  0  0  0
 13 18  2  0  0  0  0
 14 19  1  0  0  0  0
 15 20  1  0  0  0  0
 16 21  2  0  0  0  0
 17 22  2  0  0  0  0
 20 23  2  0  0  0  0
 22 24  1  0  0  0  0
 23 25  1  0  0  0  0
  9 10  1  0  0  0  0
 18 22  1  0  0  0  0
 21 23  1  0  0  0  0
M  END
>  <S/N>
9

>  <Compound ID>
C_009

>  <PubChem CID>
100437

>  <Isomeric SMILES>
COC1=C(C(=C(C(=C1)C2=CC=C(C=C2)O)OC)O)C3=CC=C(C=C3)O

>  <IC50 (�M)>
4.79

>  <pIC50>
5.32

$$$$
C_010
Actelion Java MolfileCreator 1.0

 31 33  0  0  1  0  0  0  0  0999 V2000
    7.4781    5.0329   -0.0000 O   0  0  0  0  0  0  0  0  0  0  0  0
    8.3617    3.8167   -0.0000 C   0  0  0  0  0  0  0  0  0  0  0  0
    7.8972    2.3869   -0.0000 O   0  0  0  0  0  0  0  0  0  0  0  0
    9.8650    3.8167   -0.0000 C   0  0  0  0  0  0  0  0  0  0  0  0
    9.1134    1.5033   -0.0000 C   0  0  0  0  0  0  0  0  0  0  0  0
   10.7487    5.0329   -0.0000 O   0  0  0  0  0  0  0  0  0  0  0  0
   10.3296    2.3869   -0.0000 C   0  0  0  0  0  0  0  0  0  0  0  0
    7.7739    0.8208   -0.0000 C   0  0  0  0  0  0  0  0  0  0  0  0
    9.1134    0.0000   -0.0000 C   0  0  0  0  0  0  0  0  0  0  0  0
   11.7593    1.9224   -0.0000 C   0  0  0  0  0  0  0  0  0  0  0  0
    6.5131    1.6396   -0.0000 O   0  0  0  0  0  0  0  0  0  0  0  0
    7.6952   -0.6804   -0.0000 O   0  0  0  0  0  0  0  0  0  0  0  0
   10.4153   -0.7517   -0.0000 C   0  0  0  0  0  0  0  0  0  0  0  0
   12.0992    0.4868   -0.0000 C   0  0  0  0  0  0  0  0  0  0  0  0
   12.8765    2.9283   -0.0000 C   0  0  0  0  0  0  0  0  0  0  0  0
    8.9560   -1.4992   -0.0000 C   0  0  0  0  0  0  0  0  0  0  0  0
   10.4153   -2.2550   -0.0000 C   0  0  0  0  0  0  0  0  0  0  0  0
   11.6625   -0.0697   -0.0000 C   0  0  0  0  0  0  0  0  0  0  0  0
   13.5016   -0.0126   -0.0000 C   0  0  0  0  0  0  0  0  0  0  0  0
   14.3062    2.4638   -0.0000 C   0  0  0  0  0  0  0  0  0  0  0  0
   11.7172   -3.0066   -0.0000 C   0  0  0  0  0  0  0  0  0  0  0  0
   13.0191   -0.7517   -0.0000 C   0  0  0  0  0  0  0  0  0  0  0  0
   14.6188    0.9933   -0.0000 C   0  0  0  0  0  0  0  0  0  0  0  0
   13.0191   -2.2550   -0.0000 C   0  0  0  0  0  0  0  0  0  0  0  0
   11.7172   -4.5099   -0.0000 C   0  0  0  0  0  0  0  0  0  0  0  0
   16.0485    0.5287   -0.0000 O   0  0  0  0  0  0  0  0  0  0  0  0
   14.3210   -3.0066   -0.0000 O   0  0  0  0  0  0  0  0  0  0  0  0
   13.0191   -5.2616   -0.0000 C   0  0  0  0  0  0  0  0  0  0  0  0
   13.0191   -6.7649   -0.0000 C   0  0  0  0  0  0  0  0  0  0  0  0
   11.7172   -7.5166   -0.0000 C   0  0  0  0  0  0  0  0  0  0  0  0
   14.3210   -7.5166   -0.0000 C   0  0  0  0  0  0  0  0  0  0  0  0
  1  2  2  0  0  0  0
  2  3  1  0  0  0  0
  2  4  1  0  0  0  0
  3  5  1  0  0  0  0
  4  6  1  0  0  0  0
  4  7  2  0  0  0  0
  5  8  1  0  0  0  0
  5  9  1  1  0  0  0
  7 10  1  0  0  0  0
  8 11  2  0  0  0  0
  8 12  1  0  0  0  0
  9 13  1  0  0  0  0
 10 14  2  0  0  0  0
 10 15  1  0  0  0  0
 12 16  1  0  0  0  0
 13 17  2  0  0  0  0
 13 18  1  0  0  0  0
 14 19  1  0  0  0  0
 15 20  2  0  0  0  0
 17 21  1  0  0  0  0
 18 22  2  0  0  0  0
 19 23  2  0  0  0  0
 21 24  2  0  0  0  0
 21 25  1  0  0  0  0
 23 26  1  0  0  0  0
 24 27  1  0  0  0  0
 25 28  1  0  0  0  0
 28 29  2  0  0  0  0
 29 30  1  0  0  0  0
 29 31  1  0  0  0  0
  5  7  1  0  0  0  0
 20 23  1  0  0  0  0
 22 24  1  0  0  0  0
M  END
>  <S/N>
10

>  <Compound ID>
C_010

>  <PubChem CID>
123740

>  <Isomeric SMILES>
CC(=CCC1=C(C=CC(=C1)C[C@@]2(C(=C(C(=O)O2)O)C3=CC=C(C=C3)O)C(=O)OC)O)C

>  <IC50 (�M)>
14.18

>  <pIC50>
4.85

$$$$
C_011
Actelion Java MolfileCreator 1.0

 19 21  0  0  0  0  0  0  0  0999 V2000
    5.5800    0.5305   -0.0000 Cl  0  0  0  0  0  0  0  0  0  0  0  0
    4.6019    0.3226   -0.0000 C   0  0  0  0  0  0  0  0  0  0  0  0
    3.9328    1.0657   -0.0000 C   0  0  0  0  0  0  0  0  0  0  0  0
    4.2929   -0.6285   -0.0000 C   0  0  0  0  0  0  0  0  0  0  0  0
    4.2418    2.0168   -0.0000 Cl  0  0  0  0  0  0  0  0  0  0  0  0
    2.9546    0.8578   -0.0000 C   0  0  0  0  0  0  0  0  0  0  0  0
    3.3147   -0.8364   -0.0000 C   0  0  0  0  0  0  0  0  0  0  0  0
    2.6456   -0.0933   -0.0000 C   0  0  0  0  0  0  0  0  0  0  0  0
    2.8147   -1.7024   -0.0000 N   0  0  0  0  0  0  0  0  0  0  0  0
    1.7321   -0.5000   -0.0000 N   0  0  0  0  0  0  0  0  0  0  0  0
    1.8366   -1.4945   -0.0000 N   0  0  0  0  0  0  0  0  0  0  0  0
    0.8660   -0.0000   -0.0000 C   0  0  0  0  0  0  0  0  0  0  0  0
    0.8660    1.0000   -0.0000 O   0  0  0  0  0  0  0  0  0  0  0  0
    0.0000   -0.5000   -0.0000 C   0  0  0  0  0  0  0  0  0  0  0  0
   -0.8660    0.0000   -0.0000 C   0  0  0  0  0  0  0  0  0  0  0  0
   -0.0000   -1.5000   -0.0000 C   0  0  0  0  0  0  0  0  0  0  0  0
   -1.7321   -0.5000   -0.0000 C   0  0  0  0  0  0  0  0  0  0  0  0
   -0.8660   -2.0000   -0.0000 C   0  0  0  0  0  0  0  0  0  0  0  0
   -1.7321   -1.5000   -0.0000 C   0  0  0  0  0  0  0  0  0  0  0  0
  1  2  1  0  0  0  0
  2  3  2  0  0  0  0
  2  4  1  0  0  0  0
  3  5  1  0  0  0  0
  3  6  1  0  0  0  0
  4  7  2  0  0  0  0
  6  8  2  0  0  0  0
  7  9  1  0  0  0  0
  8 10  1  0  0  0  0
  9 11  2  0  0  0  0
 10 12  1  0  0  0  0
 12 13  2  0  0  0  0
 12 14  1  0  0  0  0
 14 15  2  0  0  0  0
 14 16  1  0  0  0  0
 15 17  1  0  0  0  0
 16 18  2  0  0  0  0
 17 19  2  0  0  0  0
  7  8  1  0  0  0  0
 10 11  1  0  0  0  0
 18 19  1  0  0  0  0
M  END
>  <S/N>
11

>  <Compound ID>
C_011

>  <PubChem CID>
155893

>  <Isomeric SMILES>
C1=CC=C(C=C1)C(=O)N2C3=CC(=C(C=C3N=N2)Cl)Cl

>  <IC50 (�M)>
3.7

>  <pIC50>
5.43

$$$$
C_012
Actelion Java MolfileCreator 1.0

 13 13  0  0  1  0  0  0  0  0999 V2000
    4.3301   -0.0000   -0.0000 O   0  0  0  0  0  0  0  0  0  0  0  0
    3.4641   -0.5000   -0.0000 C   0  0  0  0  0  0  0  0  0  0  0  0
    2.5981   -0.0000   -0.0000 C   0  0  0  0  0  0  0  0  0  0  0  0
    3.4641   -1.5000   -0.0000 C   0  0  0  0  0  0  0  0  0  0  0  0
    2.5981    1.0000   -0.0000 O   0  0  0  0  0  0  0  0  0  0  0  0
    1.7321   -0.5000   -0.0000 C   0  0  0  0  0  0  0  0  0  0  0  0
    4.3301   -2.0000   -0.0000 O   0  0  0  0  0  0  0  0  0  0  0  0
    2.5981   -2.0000   -0.0000 C   0  0  0  0  0  0  0  0  0  0  0  0
    1.7321   -1.5000   -0.0000 N   0  0  0  0  0  0  0  0  0  0  0  0
    0.8660   -0.0000   -0.0000 C   0  0  0  0  0  0  0  0  0  0  0  0
    2.5981   -3.0000   -0.0000 C   0  0  0  0  0  0  0  0  0  0  0  0
    0.0000   -0.5000   -0.0000 O   0  0  0  0  0  0  0  0  0  0  0  0
    3.4641   -3.5000   -0.0000 O   0  0  0  0  0  0  0  0  0  0  0  0
  1  2  1  0  0  0  0
  2  3  1  0  0  0  0
  2  4  1  0  0  0  0
  3  5  1  6  0  0  0
  3  6  1  0  0  0  0
  4  7  1  6  0  0  0
  4  8  1  0  0  0  0
  6  9  1  0  0  0  0
  6 10  1  6  0  0  0
  8 11  1  1  0  0  0
 10 12  1  0  0  0  0
 11 13  1  0  0  0  0
  8  9  1  0  0  0  0
M  END
>  <S/N>
12

>  <Compound ID>
C_012

>  <PubChem CID>
159496

>  <Isomeric SMILES>
C([C@@H]1[C@H](C([C@H]([C@H](N1)CO)O)O)O)O

>  <IC50 (�M)>
0.04

>  <pIC50>
7.4

$$$$
C_013
Actelion Java MolfileCreator 1.0

 13 13  0  0  1  0  0  0  0  0999 V2000
    1.2990   -1.5000   -0.0000 O   0  0  0  0  0  0  0  0  0  0  0  0
    0.0000   -0.7500   -0.0000 C   0  0  0  0  0  0  0  0  0  0  0  0
   -1.2990    0.0000   -0.0000 C   0  0  0  0  0  0  0  0  0  0  0  0
   -0.0000   -2.2500   -0.0000 C   0  0  0  0  0  0  0  0  0  0  0  0
    1.2990   -0.0000   -0.0000 C   0  0  0  0  0  0  0  0  0  0  0  0
   -1.2990    1.5000   -0.0000 O   0  0  0  0  0  0  0  0  0  0  0  0
   -2.5981   -0.7500   -0.0000 C   0  0  0  0  0  0  0  0  0  0  0  0
   -1.2990   -3.0000   -0.0000 C   0  0  0  0  0  0  0  0  0  0  0  0
    2.5981   -0.7500   -0.0000 O   0  0  0  0  0  0  0  0  0  0  0  0
   -3.8971    0.0000   -0.0000 O   0  0  0  0  0  0  0  0  0  0  0  0
   -2.5981   -2.2500   -0.0000 C   0  0  0  0  0  0  0  0  0  0  0  0
   -1.2990   -4.5000   -0.0000 N   0  0  0  0  0  0  0  0  0  0  0  0
   -3.8971   -3.0000   -0.0000 O   0  0  0  0  0  0  0  0  0  0  0  0
  2  1  1  6  0  0  0
  2  3  1  0  0  0  0
  2  4  1  0  0  0  0
  2  5  1  0  0  0  0
  3  6  1  6  0  0  0
  3  7  1  0  0  0  0
  4  8  1  0  0  0  0
  5  9  1  0  0  0  0
  7 10  1  1  0  0  0
  7 11  1  0  0  0  0
  8 12  1  6  0  0  0
 11 13  1  6  0  0  0
  8 11  1  0  0  0  0
M  END
>  <S/N>
13

>  <Compound ID>
C_013

>  <PubChem CID>
174312

>  <Isomeric SMILES>
C1[C@@H]([C@@H]([C@H]([C@@H]([C@]1(CO)O)O)O)O)N

>  <IC50 (�M)>
2.2

>  <pIC50>
5.66

$$$$
C_014
Actelion Java MolfileCreator 1.0

 11 11  0  0  1  0  0  0  0  0999 V2000
    4.3301   -0.0000   -0.0000 O   0  0  0  0  0  0  0  0  0  0  0  0
    3.4641   -0.5000   -0.0000 C   0  0  0  0  0  0  0  0  0  0  0  0
    2.5981   -0.0000   -0.0000 C   0  0  0  0  0  0  0  0  0  0  0  0
    3.4641   -1.5000   -0.0000 C   0  0  0  0  0  0  0  0  0  0  0  0
    2.5981    1.0000   -0.0000 O   0  0  0  0  0  0  0  0  0  0  0  0
    1.7321   -0.5000   -0.0000 C   0  0  0  0  0  0  0  0  0  0  0  0
    4.3301   -2.0000   -0.0000 O   0  0  0  0  0  0  0  0  0  0  0  0
    2.5981   -2.0000   -0.0000 C   0  0  0  0  0  0  0  0  0  0  0  0
    1.7321   -1.5000   -0.0000 N   0  0  0  0  0  0  0  0  0  0  0  0
    0.8660   -0.0000   -0.0000 C   0  0  0  0  0  0  0  0  0  0  0  0
    0.0000   -0.5000   -0.0000 O   0  0  0  0  0  0  0  0  0  0  0  0
  2  1  1  6  0  0  0
  2  3  1  0  0  0  0
  2  4  1  0  0  0  0
  3  5  1  6  0  0  0
  3  6  1  0  0  0  0
  4  7  1  1  0  0  0
  4  8  1  0  0  0  0
  6  9  1  0  0  0  0
  6 10  1  6  0  0  0
 10 11  1  0  0  0  0
  8  9  1  0  0  0  0
M  END
>  <S/N>
14

>  <Compound ID>
C_014

>  <PubChem CID>
176077

>  <Isomeric SMILES>
C1[C@@H]([C@H]([C@H]([C@H](N1)CO)O)O)O

>  <IC50 (�M)>
1.5

>  <pIC50>
5.82

$$$$
C_015
Actelion Java MolfileCreator 1.0

 14 15  0  0  0  0  0  0  0  0999 V2000
    0.0000    2.2500   -0.0000 Cl  0  0  0  0  0  0  0  0  0  0  0  0
    1.2990    1.5000   -0.0000 C   0  0  0  0  0  0  0  0  0  0  0  0
    1.2990   -0.0000   -0.0000 C   0  0  0  0  0  0  0  0  0  0  0  0
    2.5981    2.2500   -0.0000 C   0  0  0  0  0  0  0  0  0  0  0  0
    0.0000   -0.7500   -0.0000 C   0  0  0  0  0  0  0  0  0  0  0  0
    2.5981   -0.7500   -0.0000 C   0  0  0  0  0  0  0  0  0  0  0  0
    3.8971    1.5000   -0.0000 C   0  0  0  0  0  0  0  0  0  0  0  0
   -1.3703   -0.1399   -0.0000 S   0  0  0  0  0  0  0  0  0  0  0  0
   -0.1568   -2.2418   -0.0000 N   0  0  0  0  0  0  0  0  0  0  0  0
    3.8971   -0.0000   -0.0000 C   0  0  0  0  0  0  0  0  0  0  0  0
    5.1962    2.2500   -0.0000 Cl  0  0  0  0  0  0  0  0  0  0  0  0
   -2.3740   -1.2546   -0.0000 C   0  0  0  0  0  0  0  0  0  0  0  0
   -1.6240   -2.5537   -0.0000 N   0  0  0  0  0  0  0  0  0  0  0  0
   -3.8658   -1.0978   -0.0000 N   0  0  0  0  0  0  0  0  0  0  0  0
  1  2  1  0  0  0  0
  2  3  2  0  0  0  0
  2  4  1  0  0  0  0
  3  5  1  0  0  0  0
  3  6  1  0  0  0  0
  4  7  2  0  0  0  0
  5  8  1  0  0  0  0
  5  9  2  0  0  0  0
  6 10  2  0  0  0  0
  7 11  1  0  0  0  0
  8 12  1  0  0  0  0
  9 13  1  0  0  0  0
 12 14  1  0  0  0  0
  7 10  1  0  0  0  0
 12 13  2  0  0  0  0
M  END
>  <S/N>
15

>  <Compound ID>
C_015

>  <PubChem CID>
182638

>  <Isomeric SMILES>
C1=CC(=C(C=C1Cl)Cl)C2=NN=C(S2)N

>  <IC50 (�M)>
2.3

>  <pIC50>
5.64

$$$$
C_016
Actelion Java MolfileCreator 1.0

 26 28  0  0  0  0  0  0  0  0999 V2000
    0.8660   -0.0000   -0.0000 O   0  0  0  0  0  0  0  0  0  0  0  0
    1.7321   -0.5000   -0.0000 C   0  0  0  0  0  0  0  0  0  0  0  0
    0.0000   -0.5000   -0.0000 C   0  0  0  0  0  0  0  0  0  0  0  0
    1.7321   -1.5000   -0.0000 C   0  0  0  0  0  0  0  0  0  0  0  0
    2.5981   -0.0000   -0.0000 C   0  0  0  0  0  0  0  0  0  0  0  0
    0.8660   -2.0000   -0.0000 O   0  0  0  0  0  0  0  0  0  0  0  0
    2.5981   -2.0000   -0.0000 C   0  0  0  0  0  0  0  0  0  0  0  0
    2.5981    1.0000   -0.0000 C   0  0  0  0  0  0  0  0  0  0  0  0
    3.4641   -0.5000   -0.0000 C   0  0  0  0  0  0  0  0  0  0  0  0
    3.4641   -1.5000   -0.0000 C   0  0  0  0  0  0  0  0  0  0  0  0
    2.5981   -3.0000   -0.0000 C   0  0  0  0  0  0  0  0  0  0  0  0
    3.4641    1.5000   -0.0000 C   0  0  0  0  0  0  0  0  0  0  0  0
    1.7321    1.5000   -0.0000 C   0  0  0  0  0  0  0  0  0  0  0  0
    4.3301   -2.0000   -0.0000 O   0  0  0  0  0  0  0  0  0  0  0  0
    1.7321   -3.5000   -0.0000 C   0  0  0  0  0  0  0  0  0  0  0  0
    3.4641   -3.5000   -0.0000 C   0  0  0  0  0  0  0  0  0  0  0  0
    3.4641    2.5000   -0.0000 C   0  0  0  0  0  0  0  0  0  0  0  0
    1.7321    2.5000   -0.0000 C   0  0  0  0  0  0  0  0  0  0  0  0
    5.1962   -1.5000   -0.0000 C   0  0  0  0  0  0  0  0  0  0  0  0
    1.7321   -4.5000   -0.0000 C   0  0  0  0  0  0  0  0  0  0  0  0
    3.4641   -4.5000   -0.0000 C   0  0  0  0  0  0  0  0  0  0  0  0
    2.5981    3.0000   -0.0000 C   0  0  0  0  0  0  0  0  0  0  0  0
    0.8660   -5.0000   -0.0000 O   0  0  0  0  0  0  0  0  0  0  0  0
    2.5981   -5.0000   -0.0000 C   0  0  0  0  0  0  0  0  0  0  0  0
    2.5981    4.0000   -0.0000 O   0  0  0  0  0  0  0  0  0  0  0  0
    2.5981   -6.0000   -0.0000 O   0  0  0  0  0  0  0  0  0  0  0  0
  1  2  1  0  0  0  0
  1  3  1  0  0  0  0
  2  4  2  0  0  0  0
  2  5  1  0  0  0  0
  4  6  1  0  0  0  0
  4  7  1  0  0  0  0
  5  8  1  0  0  0  0
  5  9  2  0  0  0  0
  7 10  2  0  0  0  0
  7 11  1  0  0  0  0
  8 12  2  0  0  0  0
  8 13  1  0  0  0  0
 10 14  1  0  0  0  0
 11 15  2  0  0  0  0
 11 16  1  0  0  0  0
 12 17  1  0  0  0  0
 13 18  2  0  0  0  0
 14 19  1  0  0  0  0
 15 20  1  0  0  0  0
 16 21  2  0  0  0  0
 17 22  2  0  0  0  0
 20 23  1  0  0  0  0
 20 24  2  0  0  0  0
 22 25  1  0  0  0  0
 24 26  1  0  0  0  0
  9 10  1  0  0  0  0
 18 22  1  0  0  0  0
 21 24  1  0  0  0  0
M  END
>  <S/N>
16

>  <Compound ID>
C_016

>  <PubChem CID>
191796

>  <Isomeric SMILES>
COC1=C(C(=C(C(=C1)C2=CC=C(C=C2)O)OC)O)C3=CC(=C(C=C3)O)O

>  <IC50 (�M)>
11.3

>  <pIC50>
4.95

$$$$
C_017
Actelion Java MolfileCreator 1.0

 12 12  0  0  1  0  0  0  0  0999 V2000
    2.5981    1.0000   -0.0000 O   0  0  0  0  0  0  0  0  0  0  0  0
    2.5981    0.0000   -0.0000 C   0  0  0  0  0  0  0  0  0  0  0  0
    1.7321   -0.5000   -0.0000 C   0  0  0  0  0  0  0  0  0  0  0  0
    3.4641   -0.5000   -0.0000 C   0  0  0  0  0  0  0  0  0  0  0  0
    1.7321   -1.5000   -0.0000 C   0  0  0  0  0  0  0  0  0  0  0  0
    0.8660   -0.0000   -0.0000 C   0  0  0  0  0  0  0  0  0  0  0  0
    4.3301    0.0000   -0.0000 O   0  0  0  0  0  0  0  0  0  0  0  0
    3.4641   -1.5000   -0.0000 C   0  0  0  0  0  0  0  0  0  0  0  0
    2.5981   -2.0000   -0.0000 C   0  0  0  0  0  0  0  0  0  0  0  0
    0.0000   -0.5000   -0.0000 O   0  0  0  0  0  0  0  0  0  0  0  0
    4.3301   -2.0000   -0.0000 O   0  0  0  0  0  0  0  0  0  0  0  0
    2.5981   -3.0000   -0.0000 N   0  0  0  0  0  0  0  0  0  0  0  0
  2  1  1  1  0  0  0
  2  3  1  0  0  0  0
  2  4  1  0  0  0  0
  3  5  2  0  0  0  0
  3  6  1  0  0  0  0
  4  7  1  6  0  0  0
  4  8  1  0  0  0  0
  5  9  1  0  0  0  0
  6 10  1  0  0  0  0
  8 11  1  1  0  0  0
  9 12  1  1  0  0  0
  8  9  1  0  0  0  0
M  END
>  <S/N>
17

>  <Compound ID>
C_017

>  <PubChem CID>
193758

>  <Isomeric SMILES>
C1=C([C@H]([C@@H]([C@H]([C@H]1N)O)O)O)CO

>  <IC50 (�M)>
100

>  <pIC50>
4

$$$$
C_018
Actelion Java MolfileCreator 1.0

 19 21  0  0  0  0  0  0  0  0999 V2000
    1.7321   -0.5000   -0.0000 O   0  0  0  0  0  0  0  0  0  0  0  0
    0.8660   -0.0000   -0.0000 C   0  0  0  0  0  0  0  0  0  0  0  0
    0.8660    1.0000   -0.0000 N   0  0  0  0  0  0  0  0  0  0  0  0
    0.0000   -0.5000   -0.0000 C   0  0  0  0  0  0  0  0  0  0  0  0
    1.6750    1.5878   -0.0000 N   0  0  0  0  0  0  0  0  0  0  0  0
    0.0570    1.5878   -0.0000 C   0  0  0  0  0  0  0  0  0  0  0  0
   -0.8660    0.0000   -0.0000 C   0  0  0  0  0  0  0  0  0  0  0  0
   -0.0000   -1.5000   -0.0000 C   0  0  0  0  0  0  0  0  0  0  0  0
    1.3660    2.5388   -0.0000 N   0  0  0  0  0  0  0  0  0  0  0  0
    0.3660    2.5388   -0.0000 C   0  0  0  0  0  0  0  0  0  0  0  0
   -0.9211    1.3799   -0.0000 C   0  0  0  0  0  0  0  0  0  0  0  0
   -1.7321   -0.5000   -0.0000 C   0  0  0  0  0  0  0  0  0  0  0  0
   -0.8660   -2.0000   -0.0000 C   0  0  0  0  0  0  0  0  0  0  0  0
   -0.3031    3.2820   -0.0000 C   0  0  0  0  0  0  0  0  0  0  0  0
   -1.5903    2.1230   -0.0000 C   0  0  0  0  0  0  0  0  0  0  0  0
   -1.7321   -1.5000   -0.0000 C   0  0  0  0  0  0  0  0  0  0  0  0
   -1.2813    3.0741   -0.0000 C   0  0  0  0  0  0  0  0  0  0  0  0
   -2.5684    1.9151   -0.0000 C   0  0  0  0  0  0  0  0  0  0  0  0
   -1.9504    3.8172   -0.0000 C   0  0  0  0  0  0  0  0  0  0  0  0
  1  2  2  0  0  0  0
  2  3  1  0  0  0  0
  2  4  1  0  0  0  0
  3  5  1  0  0  0  0
  3  6  1  0  0  0  0
  4  7  2  0  0  0  0
  4  8  1  0  0  0  0
  5  9  2  0  0  0  0
  6 10  2  0  0  0  0
  6 11  1  0  0  0  0
  7 12  1  0  0  0  0
  8 13  2  0  0  0  0
 10 14  1  0  0  0  0
 11 15  2  0  0  0  0
 12 16  2  0  0  0  0
 14 17  2  0  0  0  0
 15 18  1  0  0  0  0
 17 19  1  0  0  0  0
  9 10  1  0  0  0  0
 13 16  1  0  0  0  0
 15 17  1  0  0  0  0
M  END
>  <S/N>
18

>  <Compound ID>
C_018

>  <PubChem CID>
256338

>  <Isomeric SMILES>
CC1=CC2=C(C=C1C)N(N=N2)C(=O)C3=CC=CC=C3

>  <IC50 (�M)>
3.4

>  <pIC50>
5.47

$$$$
C_019
Actelion Java MolfileCreator 1.0

 15 16  0  0  0  0  0  0  0  0999 V2000
    5.2437   -0.4067   -0.0000 S   0  0  0  0  0  0  0  0  0  0  0  0
    5.9128    0.3364   -0.0000 C   0  0  0  0  0  0  0  0  0  0  0  0
    4.3301   -0.0000   -0.0000 C   0  0  0  0  0  0  0  0  0  0  0  0
    5.4128    1.2024   -0.0000 N   0  0  0  0  0  0  0  0  0  0  0  0
    6.9073    0.2319   -0.0000 N   0  0  0  0  0  0  0  0  0  0  0  0
    4.4347    0.9945   -0.0000 N   0  0  0  0  0  0  0  0  0  0  0  0
    3.4641   -0.5000   -0.0000 C   0  0  0  0  0  0  0  0  0  0  0  0
    2.5981   -0.0000   -0.0000 C   0  0  0  0  0  0  0  0  0  0  0  0
    3.4641   -1.5000   -0.0000 C   0  0  0  0  0  0  0  0  0  0  0  0
    1.7321   -0.5000   -0.0000 C   0  0  0  0  0  0  0  0  0  0  0  0
    2.5981   -2.0000   -0.0000 C   0  0  0  0  0  0  0  0  0  0  0  0
    0.8660   -0.0000   -0.0000 N   0  0  0  0  0  0  0  0  0  0  0  0
    1.7321   -1.5000   -0.0000 C   0  0  0  0  0  0  0  0  0  0  0  0
    0.8660    1.0000   -0.0000 O   0  0  0  0  0  0  0  0  0  0  0  0
    0.0000   -0.5000   -0.0000 O   0  0  0  0  0  0  0  0  0  0  0  0
  1  2  1  0  0  0  0
  1  3  1  0  0  0  0
  2  4  2  0  0  0  0
  2  5  1  0  0  0  0
  3  6  2  0  0  0  0
  3  7  1  0  0  0  0
  7  8  2  0  0  0  0
  7  9  1  0  0  0  0
  8 10  1  0  0  0  0
  9 11  2  0  0  0  0
 10 12  1  0  0  0  0
 10 13  2  0  0  0  0
 12 14  2  0  0  0  0
 12 15  1  0  0  0  0
  4  6  1  0  0  0  0
 11 13  1  0  0  0  0
M  CHG  2  12   1  15  -1
M  END
>  <S/N>
19

>  <Compound ID>
C_019

>  <PubChem CID>
256343

>  <Isomeric SMILES>
C1=CC(=CC(=C1)[N+](=O)[O-])C2=NN=C(S2)N

>  <IC50 (�M)>
2.3

>  <pIC50>
5.64

$$$$
C_020
Actelion Java MolfileCreator 1.0

 14 14  0  0  1  0  0  0  0  0999 V2000
    5.1962    1.5000   -0.0000 O   0  0  0  0  0  0  0  0  0  0  0  0
    4.3301    1.0000   -0.0000 C   0  0  0  0  0  0  0  0  0  0  0  0
    3.4641    1.5000   -0.0000 C   0  0  0  0  0  0  0  0  0  0  0  0
    4.3301    0.0000   -0.0000 C   0  0  0  0  0  0  0  0  0  0  0  0
    3.4641    2.5000   -0.0000 O   0  0  0  0  0  0  0  0  0  0  0  0
    2.5981    1.0000   -0.0000 C   0  0  0  0  0  0  0  0  0  0  0  0
    5.1962   -0.5000   -0.0000 O   0  0  0  0  0  0  0  0  0  0  0  0
    3.4641   -0.5000   -0.0000 C   0  0  0  0  0  0  0  0  0  0  0  0
    2.5981   -0.0000   -0.0000 N   0  0  0  0  0  0  0  0  0  0  0  0
    1.7321    1.5000   -0.0000 C   0  0  0  0  0  0  0  0  0  0  0  0
    1.7321   -0.5000   -0.0000 C   0  0  0  0  0  0  0  0  0  0  0  0
    0.8660    1.0000   -0.0000 O   0  0  0  0  0  0  0  0  0  0  0  0
    0.8660   -0.0000   -0.0000 C   0  0  0  0  0  0  0  0  0  0  0  0
    0.0000   -0.5000   -0.0000 O   0  0  0  0  0  0  0  0  0  0  0  0
  2  1  1  6  0  0  0
  2  3  1  0  0  0  0
  2  4  1  0  0  0  0
  3  5  1  1  0  0  0
  3  6  1  0  0  0  0
  4  7  1  1  0  0  0
  4  8  1  0  0  0  0
  6  9  1  0  0  0  0
  6 10  1  6  0  0  0
  9 11  1  0  0  0  0
 10 12  1  0  0  0  0
 11 13  1  0  0  0  0
 13 14  1  0  0  0  0
  8  9  1  0  0  0  0
M  END
>  <S/N>
20

>  <Compound ID>
C_020

>  <PubChem CID>
441314

>  <Isomeric SMILES>
C1[C@@H]([C@H]([C@@H]([C@H](N1CCO)CO)O)O)O

>  <IC50 (�M)>
3.7

>  <pIC50>
5.43

$$$$
C_021
Actelion Java MolfileCreator 1.0

 18 18  0  0  1  0  0  0  0  0999 V2000
    5.1962   -2.5000   -0.0000 O   0  0  0  0  0  0  0  0  0  0  0  0
    4.3301   -2.0000   -0.0000 C   0  0  0  0  0  0  0  0  0  0  0  0
    5.1962   -1.5000   -0.0000 C   0  0  0  0  0  0  0  0  0  0  0  0
    3.4641   -1.5000   -0.0000 C   0  0  0  0  0  0  0  0  0  0  0  0
    4.3301   -3.0000   -0.0000 C   0  0  0  0  0  0  0  0  0  0  0  0
    6.0622   -2.0000   -0.0000 O   0  0  0  0  0  0  0  0  0  0  0  0
    5.1962   -0.5000   -0.0000 C   0  0  0  0  0  0  0  0  0  0  0  0
    3.4641   -0.5000   -0.0000 C   0  0  0  0  0  0  0  0  0  0  0  0
    3.4641   -3.5000   -0.0000 O   0  0  0  0  0  0  0  0  0  0  0  0
    6.0622   -0.0000   -0.0000 O   0  0  0  0  0  0  0  0  0  0  0  0
    4.3301    0.0000   -0.0000 C   0  0  0  0  0  0  0  0  0  0  0  0
    2.5981   -0.0000   -0.0000 N   0  0  0  0  0  0  0  0  0  0  0  0
    4.3301    1.0000   -0.0000 O   0  0  0  0  0  0  0  0  0  0  0  0
    1.7321   -0.5000   -0.0000 C   0  0  0  0  0  0  0  0  0  0  0  0
    1.7321   -1.5000   -0.0000 C   0  0  0  0  0  0  0  0  0  0  0  0
    0.8660   -0.0000   -0.0000 C   0  0  0  0  0  0  0  0  0  0  0  0
    2.5981   -2.0000   -0.0000 O   0  0  0  0  0  0  0  0  0  0  0  0
    0.0000   -0.5000   -0.0000 O   0  0  0  0  0  0  0  0  0  0  0  0
  2  1  1  6  0  0  0
  2  3  1  0  0  0  0
  2  4  1  0  0  0  0
  2  5  1  0  0  0  0
  3  6  1  6  0  0  0
  3  7  1  0  0  0  0
  4  8  1  0  0  0  0
  5  9  1  0  0  0  0
  7 10  1  1  0  0  0
  7 11  1  0  0  0  0
  8 12  1  6  0  0  0
 11 13  1  6  0  0  0
 12 14  1  0  0  0  0
 14 15  1  0  0  0  0
 14 16  1  0  0  0  0
 15 17  1  0  0  0  0
 16 18  1  0  0  0  0
  8 11  1  0  0  0  0
M  END
>  <S/N>
21

>  <Compound ID>
C_021

>  <PubChem CID>
444020

>  <Isomeric SMILES>
C1[C@@H]([C@@H]([C@H]([C@@H]([C@]1(CO)O)O)O)O)NC(CO)CO

>  <IC50 (�M)>
1.3

>  <pIC50>
5.89

$$$$
C_022
Actelion Java MolfileCreator 1.0

  9  9  0  0  1  0  0  0  0  0999 V2000
    1.0934   -2.1637   -0.0000 O   0  0  0  0  0  0  0  0  0  0  0  0
    1.8366   -1.4945   -0.0000 C   0  0  0  0  0  0  0  0  0  0  0  0
    2.8147   -1.7024   -0.0000 C   0  0  0  0  0  0  0  0  0  0  0  0
    1.7321   -0.5000   -0.0000 C   0  0  0  0  0  0  0  0  0  0  0  0
    3.2215   -2.6160   -0.0000 O   0  0  0  0  0  0  0  0  0  0  0  0
    3.3147   -0.8364   -0.0000 C   0  0  0  0  0  0  0  0  0  0  0  0
    2.6456   -0.0933   -0.0000 N   0  0  0  0  0  0  0  0  0  0  0  0
    0.8660   -0.0000   -0.0000 C   0  0  0  0  0  0  0  0  0  0  0  0
    0.0000   -0.5000   -0.0000 O   0  0  0  0  0  0  0  0  0  0  0  0
  2  1  1  6  0  0  0
  2  3  1  0  0  0  0
  2  4  1  0  0  0  0
  3  5  1  1  0  0  0
  3  6  1  0  0  0  0
  4  7  1  0  0  0  0
  4  8  1  1  0  0  0
  8  9  1  0  0  0  0
  6  7  1  0  0  0  0
M  END
>  <S/N>
22

>  <Compound ID>
C_022

>  <PubChem CID>
451991

>  <Isomeric SMILES>
C1[C@H]([C@@H]([C@H](N1)CO)O)O

>  <IC50 (�M)>
55

>  <pIC50>
4.26

$$$$
C_024
Actelion Java MolfileCreator 1.0

 17 19  0  0  0  0  0  0  0  0999 V2000
    1.7321   -0.5000   -0.0000 O   0  0  0  0  0  0  0  0  0  0  0  0
    0.8660   -0.0000   -0.0000 C   0  0  0  0  0  0  0  0  0  0  0  0
    0.8660    1.0000   -0.0000 N   0  0  0  0  0  0  0  0  0  0  0  0
    0.0000   -0.5000   -0.0000 C   0  0  0  0  0  0  0  0  0  0  0  0
    1.6750    1.5878   -0.0000 N   0  0  0  0  0  0  0  0  0  0  0  0
    0.0570    1.5878   -0.0000 C   0  0  0  0  0  0  0  0  0  0  0  0
   -0.8660    0.0000   -0.0000 C   0  0  0  0  0  0  0  0  0  0  0  0
   -0.0000   -1.5000   -0.0000 C   0  0  0  0  0  0  0  0  0  0  0  0
    1.3660    2.5388   -0.0000 N   0  0  0  0  0  0  0  0  0  0  0  0
    0.3660    2.5388   -0.0000 C   0  0  0  0  0  0  0  0  0  0  0  0
   -0.9211    1.3799   -0.0000 C   0  0  0  0  0  0  0  0  0  0  0  0
   -1.7321   -0.5000   -0.0000 C   0  0  0  0  0  0  0  0  0  0  0  0
   -0.8660   -2.0000   -0.0000 C   0  0  0  0  0  0  0  0  0  0  0  0
   -0.3031    3.2820   -0.0000 C   0  0  0  0  0  0  0  0  0  0  0  0
   -1.5903    2.1230   -0.0000 C   0  0  0  0  0  0  0  0  0  0  0  0
   -1.7321   -1.5000   -0.0000 C   0  0  0  0  0  0  0  0  0  0  0  0
   -1.2813    3.0741   -0.0000 C   0  0  0  0  0  0  0  0  0  0  0  0
  1  2  2  0  0  0  0
  2  3  1  0  0  0  0
  2  4  1  0  0  0  0
  3  5  1  0  0  0  0
  3  6  1  0  0  0  0
  4  7  2  0  0  0  0
  4  8  1  0  0  0  0
  5  9  2  0  0  0  0
  6 10  2  0  0  0  0
  6 11  1  0  0  0  0
  7 12  1  0  0  0  0
  8 13  2  0  0  0  0
 10 14  1  0  0  0  0
 11 15  2  0  0  0  0
 12 16  2  0  0  0  0
 14 17  2  0  0  0  0
  9 10  1  0  0  0  0
 13 16  1  0  0  0  0
 15 17  1  0  0  0  0
M  END
>  <S/N>
23

>  <Compound ID>
C_024

>  <PubChem CID>
570059

>  <Isomeric SMILES>
C1=CC=C(C=C1)C(=O)N2C3=CC=CC=C3N=N2

>  <IC50 (�M)>
5.29

>  <pIC50>
5.28

$$$$
C_025
Actelion Java MolfileCreator 1.0

 13 14  0  0  0  0  0  0  0  0999 V2000
    3.4641    1.5000   -0.0000 Cl  0  0  0  0  0  0  0  0  0  0  0  0
    2.5981    1.0000   -0.0000 C   0  0  0  0  0  0  0  0  0  0  0  0
    1.7321    1.5000   -0.0000 C   0  0  0  0  0  0  0  0  0  0  0  0
    2.5981   -0.0000   -0.0000 C   0  0  0  0  0  0  0  0  0  0  0  0
    0.8660    1.0000   -0.0000 C   0  0  0  0  0  0  0  0  0  0  0  0
    1.7321   -0.5000   -0.0000 C   0  0  0  0  0  0  0  0  0  0  0  0
    0.8660   -0.0000   -0.0000 C   0  0  0  0  0  0  0  0  0  0  0  0
    0.0000   -0.5000   -0.0000 C   0  0  0  0  0  0  0  0  0  0  0  0
   -0.9135   -0.0933   -0.0000 S   0  0  0  0  0  0  0  0  0  0  0  0
   -0.1045   -1.4945   -0.0000 N   0  0  0  0  0  0  0  0  0  0  0  0
   -1.5827   -0.8364   -0.0000 C   0  0  0  0  0  0  0  0  0  0  0  0
   -1.0827   -1.7024   -0.0000 N   0  0  0  0  0  0  0  0  0  0  0  0
   -2.5772   -0.7319   -0.0000 N   0  0  0  0  0  0  0  0  0  0  0  0
  1  2  1  0  0  0  0
  2  3  2  0  0  0  0
  2  4  1  0  0  0  0
  3  5  1  0  0  0  0
  4  6  2  0  0  0  0
  5  7  2  0  0  0  0
  7  8  1  0  0  0  0
  8  9  1  0  0  0  0
  8 10  2  0  0  0  0
  9 11  1  0  0  0  0
 10 12  1  0  0  0  0
 11 13  1  0  0  0  0
  6  7  1  0  0  0  0
 11 12  2  0  0  0  0
M  END
>  <S/N>
24

>  <Compound ID>
C_025

>  <PubChem CID>
668392

>  <Isomeric SMILES>
C1=CC(=CC=C1C2=NN=C(S2)N)Cl

>  <IC50 (�M)>
2.3

>  <pIC50>
5.64

$$$$
C_026
Actelion Java MolfileCreator 1.0

 19 21  0  0  0  0  0  0  0  0999 V2000
    5.1962    1.5000   -0.0000 Cl  0  0  0  0  0  0  0  0  0  0  0  0
    4.3301    1.0000   -0.0000 C   0  0  0  0  0  0  0  0  0  0  0  0
    3.4641    1.5000   -0.0000 C   0  0  0  0  0  0  0  0  0  0  0  0
    4.3301    0.0000   -0.0000 C   0  0  0  0  0  0  0  0  0  0  0  0
    2.5981    1.0000   -0.0000 C   0  0  0  0  0  0  0  0  0  0  0  0
    3.4641   -0.5000   -0.0000 C   0  0  0  0  0  0  0  0  0  0  0  0
    2.5981   -0.0000   -0.0000 C   0  0  0  0  0  0  0  0  0  0  0  0
    1.7321   -0.5000   -0.0000 C   0  0  0  0  0  0  0  0  0  0  0  0
    1.7321   -1.5000   -0.0000 O   0  0  0  0  0  0  0  0  0  0  0  0
    0.8660   -0.0000   -0.0000 C   0  0  0  0  0  0  0  0  0  0  0  0
    0.0000   -0.5000   -0.0000 N   0  0  0  0  0  0  0  0  0  0  0  0
   -0.9135   -0.0933   -0.0000 N   0  0  0  0  0  0  0  0  0  0  0  0
   -0.1045   -1.4945   -0.0000 C   0  0  0  0  0  0  0  0  0  0  0  0
   -1.5827   -0.8364   -0.0000 N   0  0  0  0  0  0  0  0  0  0  0  0
   -1.0827   -1.7024   -0.0000 C   0  0  0  0  0  0  0  0  0  0  0  0
    0.5646   -2.2377   -0.0000 C   0  0  0  0  0  0  0  0  0  0  0  0
   -1.3917   -2.6535   -0.0000 C   0  0  0  0  0  0  0  0  0  0  0  0
    0.2556   -3.1887   -0.0000 C   0  0  0  0  0  0  0  0  0  0  0  0
   -0.7226   -3.3966   -0.0000 C   0  0  0  0  0  0  0  0  0  0  0  0
  1  2  1  0  0  0  0
  2  3  2  0  0  0  0
  2  4  1  0  0  0  0
  3  5  1  0  0  0  0
  4  6  2  0  0  0  0
  5  7  2  0  0  0  0
  7  8  1  0  0  0  0
  8  9  2  0  0  0  0
  8 10  1  0  0  0  0
 10 11  1  0  0  0  0
 11 12  1  0  0  0  0
 11 13  1  0  0  0  0
 12 14  2  0  0  0  0
 13 15  2  0  0  0  0
 13 16  1  0  0  0  0
 15 17  1  0  0  0  0
 16 18  2  0  0  0  0
 17 19  2  0  0  0  0
  6  7  1  0  0  0  0
 14 15  1  0  0  0  0
 18 19  1  0  0  0  0
M  END
>  <S/N>
25

>  <Compound ID>
C_026

>  <PubChem CID>
677475

>  <Isomeric SMILES>
C1=CC=C2C(=C1)N=NN2CC(=O)C3=CC=C(C=C3)Cl

>  <IC50 (�M)>
2.5

>  <pIC50>
5.6

$$$$
C_027
Actelion Java MolfileCreator 1.0

 18 20  0  0  0  0  0  0  0  0999 V2000
    6.4952   -3.0000   -0.0000 Br  0  0  0  0  0  0  0  0  0  0  0  0
    5.1962   -2.2500   -0.0000 C   0  0  0  0  0  0  0  0  0  0  0  0
    5.1962   -0.7500   -0.0000 C   0  0  0  0  0  0  0  0  0  0  0  0
    3.8971   -3.0000   -0.0000 C   0  0  0  0  0  0  0  0  0  0  0  0
    3.8971    0.0000   -0.0000 C   0  0  0  0  0  0  0  0  0  0  0  0
    2.5981   -2.2500   -0.0000 C   0  0  0  0  0  0  0  0  0  0  0  0
    2.5981   -0.7500   -0.0000 C   0  0  0  0  0  0  0  0  0  0  0  0
    1.2990   -0.0000   -0.0000 C   0  0  0  0  0  0  0  0  0  0  0  0
    1.2990    1.5000   -0.0000 O   0  0  0  0  0  0  0  0  0  0  0  0
    0.0000   -0.7500   -0.0000 N   0  0  0  0  0  0  0  0  0  0  0  0
   -1.3703   -0.1399   -0.0000 N   0  0  0  0  0  0  0  0  0  0  0  0
   -0.1568   -2.2418   -0.0000 C   0  0  0  0  0  0  0  0  0  0  0  0
   -2.3740   -1.2546   -0.0000 N   0  0  0  0  0  0  0  0  0  0  0  0
   -1.6240   -2.5537   -0.0000 C   0  0  0  0  0  0  0  0  0  0  0  0
    0.8469   -3.3565   -0.0000 C   0  0  0  0  0  0  0  0  0  0  0  0
   -2.0875   -3.9802   -0.0000 C   0  0  0  0  0  0  0  0  0  0  0  0
    0.3834   -4.7831   -0.0000 C   0  0  0  0  0  0  0  0  0  0  0  0
   -1.0838   -5.0950   -0.0000 C   0  0  0  0  0  0  0  0  0  0  0  0
  1  2  1  0  0  0  0
  2  3  2  0  0  0  0
  2  4  1  0  0  0  0
  3  5  1  0  0  0  0
  4  6  2  0  0  0  0
  5  7  2  0  0  0  0
  7  8  1  0  0  0  0
  8  9  2  0  0  0  0
  8 10  1  0  0  0  0
 10 11  1  0  0  0  0
 10 12  1  0  0  0  0
 11 13  2  0  0  0  0
 12 14  2  0  0  0  0
 12 15  1  0  0  0  0
 14 16  1  0  0  0  0
 15 17  2  0  0  0  0
 16 18  2  0  0  0  0
  6  7  1  0  0  0  0
 13 14  1  0  0  0  0
 17 18  1  0  0  0  0
M  END
>  <S/N>
26

>  <Compound ID>
C_027

>  <PubChem CID>
693001

>  <Isomeric SMILES>
C1=CC=C2C(=C1)N=NN2C(=O)C3=CC=C(C=C3)Br

>  <IC50 (�M)>
3.2

>  <pIC50>
5.49

$$$$
C_028
Actelion Java MolfileCreator 1.0

 19 21  0  0  0  0  0  0  0  0999 V2000
    1.7321   -0.5000   -0.0000 O   0  0  0  0  0  0  0  0  0  0  0  0
    0.8660   -0.0000   -0.0000 C   0  0  0  0  0  0  0  0  0  0  0  0
    0.8660    1.0000   -0.0000 N   0  0  0  0  0  0  0  0  0  0  0  0
    0.0000   -0.5000   -0.0000 C   0  0  0  0  0  0  0  0  0  0  0  0
    1.6750    1.5878   -0.0000 N   0  0  0  0  0  0  0  0  0  0  0  0
    0.0570    1.5878   -0.0000 C   0  0  0  0  0  0  0  0  0  0  0  0
   -0.8660    0.0000   -0.0000 C   0  0  0  0  0  0  0  0  0  0  0  0
   -0.0000   -1.5000   -0.0000 C   0  0  0  0  0  0  0  0  0  0  0  0
    1.3660    2.5388   -0.0000 N   0  0  0  0  0  0  0  0  0  0  0  0
    0.3660    2.5388   -0.0000 C   0  0  0  0  0  0  0  0  0  0  0  0
   -0.9211    1.3799   -0.0000 C   0  0  0  0  0  0  0  0  0  0  0  0
   -1.7321   -0.5000   -0.0000 C   0  0  0  0  0  0  0  0  0  0  0  0
   -0.8660   -2.0000   -0.0000 C   0  0  0  0  0  0  0  0  0  0  0  0
   -0.3031    3.2820   -0.0000 C   0  0  0  0  0  0  0  0  0  0  0  0
   -1.5903    2.1230   -0.0000 C   0  0  0  0  0  0  0  0  0  0  0  0
   -1.7321   -1.5000   -0.0000 C   0  0  0  0  0  0  0  0  0  0  0  0
   -1.2813    3.0741   -0.0000 C   0  0  0  0  0  0  0  0  0  0  0  0
   -2.5981   -2.0000   -0.0000 O   0  0  0  0  0  0  0  0  0  0  0  0
   -2.5981   -3.0000   -0.0000 C   0  0  0  0  0  0  0  0  0  0  0  0
  1  2  2  0  0  0  0
  2  3  1  0  0  0  0
  2  4  1  0  0  0  0
  3  5  1  0  0  0  0
  3  6  1  0  0  0  0
  4  7  2  0  0  0  0
  4  8  1  0  0  0  0
  5  9  2  0  0  0  0
  6 10  2  0  0  0  0
  6 11  1  0  0  0  0
  7 12  1  0  0  0  0
  8 13  2  0  0  0  0
 10 14  1  0  0  0  0
 11 15  2  0  0  0  0
 12 16  2  0  0  0  0
 14 17  2  0  0  0  0
 16 18  1  0  0  0  0
 18 19  1  0  0  0  0
  9 10  1  0  0  0  0
 13 16  1  0  0  0  0
 15 17  1  0  0  0  0
M  END
>  <S/N>
27

>  <Compound ID>
C_028

>  <PubChem CID>
710644

>  <Isomeric SMILES>
COC1=CC=C(C=C1)C(=O)N2C3=CC=CC=C3N=N2

>  <IC50 (�M)>
2.99

>  <pIC50>
5.52

$$$$
C_029
Actelion Java MolfileCreator 1.0

 20 22  0  0  0  0  0  0  0  0999 V2000
    4.3301   -3.0000   -0.0000 O   0  0  0  0  0  0  0  0  0  0  0  0
    4.3301   -2.0000   -0.0000 N   0  0  0  0  0  0  0  0  0  0  0  0
    5.1962   -1.5000   -0.0000 O   0  0  0  0  0  0  0  0  0  0  0  0
    3.4641   -1.5000   -0.0000 C   0  0  0  0  0  0  0  0  0  0  0  0
    3.4641   -0.5000   -0.0000 C   0  0  0  0  0  0  0  0  0  0  0  0
    2.5981   -2.0000   -0.0000 C   0  0  0  0  0  0  0  0  0  0  0  0
    2.5981    0.0000   -0.0000 C   0  0  0  0  0  0  0  0  0  0  0  0
    1.7321   -1.5000   -0.0000 C   0  0  0  0  0  0  0  0  0  0  0  0
    1.7321   -0.5000   -0.0000 C   0  0  0  0  0  0  0  0  0  0  0  0
    0.8660   -0.0000   -0.0000 C   0  0  0  0  0  0  0  0  0  0  0  0
    0.8660    1.0000   -0.0000 O   0  0  0  0  0  0  0  0  0  0  0  0
    0.0000   -0.5000   -0.0000 N   0  0  0  0  0  0  0  0  0  0  0  0
   -0.9135   -0.0933   -0.0000 N   0  0  0  0  0  0  0  0  0  0  0  0
   -0.1045   -1.4945   -0.0000 C   0  0  0  0  0  0  0  0  0  0  0  0
   -1.5827   -0.8364   -0.0000 N   0  0  0  0  0  0  0  0  0  0  0  0
   -1.0827   -1.7024   -0.0000 C   0  0  0  0  0  0  0  0  0  0  0  0
    0.5646   -2.2377   -0.0000 C   0  0  0  0  0  0  0  0  0  0  0  0
   -1.3917   -2.6535   -0.0000 C   0  0  0  0  0  0  0  0  0  0  0  0
    0.2556   -3.1887   -0.0000 C   0  0  0  0  0  0  0  0  0  0  0  0
   -0.7226   -3.3966   -0.0000 C   0  0  0  0  0  0  0  0  0  0  0  0
  1  2  2  0  0  0  0
  2  3  1  0  0  0  0
  2  4  1  0  0  0  0
  4  5  2  0  0  0  0
  4  6  1  0  0  0  0
  5  7  1  0  0  0  0
  6  8  2  0  0  0  0
  7  9  2  0  0  0  0
  9 10  1  0  0  0  0
 10 11  2  0  0  0  0
 10 12  1  0  0  0  0
 12 13  1  0  0  0  0
 12 14  1  0  0  0  0
 13 15  2  0  0  0  0
 14 16  2  0  0  0  0
 14 17  1  0  0  0  0
 16 18  1  0  0  0  0
 17 19  2  0  0  0  0
 18 20  2  0  0  0  0
  8  9  1  0  0  0  0
 15 16  1  0  0  0  0
 19 20  1  0  0  0  0
M  CHG  2   2   1   3  -1
M  END
>  <S/N>
28

>  <Compound ID>
C_029

>  <PubChem CID>
710799

>  <Isomeric SMILES>
C1=CC=C2C(=C1)N=NN2C(=O)C3=CC=C(C=C3)[N+](=O)[O-]

>  <IC50 (�M)>
2.97

>  <pIC50>
5.53

$$$$
C_030
Actelion Java MolfileCreator 1.0

 18 20  0  0  0  0  0  0  0  0999 V2000
    2.5981    2.2500   -0.0000 O   0  0  0  0  0  0  0  0  0  0  0  0
    1.2990    1.5000   -0.0000 C   0  0  0  0  0  0  0  0  0  0  0  0
    0.0000    2.2500   -0.0000 C   0  0  0  0  0  0  0  0  0  0  0  0
    1.2990   -0.0000   -0.0000 C   0  0  0  0  0  0  0  0  0  0  0  0
   -1.2990    1.5000   -0.0000 C   0  0  0  0  0  0  0  0  0  0  0  0
    0.0000    3.7500   -0.0000 C   0  0  0  0  0  0  0  0  0  0  0  0
    0.0000   -0.7500   -0.0000 N   0  0  0  0  0  0  0  0  0  0  0  0
   -2.5981    2.2500   -0.0000 C   0  0  0  0  0  0  0  0  0  0  0  0
   -1.2990    4.5000   -0.0000 C   0  0  0  0  0  0  0  0  0  0  0  0
   -1.3703   -0.1399   -0.0000 N   0  0  0  0  0  0  0  0  0  0  0  0
   -0.1568   -2.2418   -0.0000 C   0  0  0  0  0  0  0  0  0  0  0  0
   -2.5981    3.7500   -0.0000 C   0  0  0  0  0  0  0  0  0  0  0  0
   -2.3740   -1.2546   -0.0000 N   0  0  0  0  0  0  0  0  0  0  0  0
   -1.6240   -2.5537   -0.0000 C   0  0  0  0  0  0  0  0  0  0  0  0
    0.8469   -3.3565   -0.0000 C   0  0  0  0  0  0  0  0  0  0  0  0
   -2.0875   -3.9802   -0.0000 C   0  0  0  0  0  0  0  0  0  0  0  0
    0.3834   -4.7831   -0.0000 C   0  0  0  0  0  0  0  0  0  0  0  0
   -1.0838   -5.0950   -0.0000 C   0  0  0  0  0  0  0  0  0  0  0  0
  1  2  2  0  0  0  0
  2  3  1  0  0  0  0
  2  4  1  0  0  0  0
  3  5  2  0  0  0  0
  3  6  1  0  0  0  0
  4  7  1  0  0  0  0
  5  8  1  0  0  0  0
  6  9  2  0  0  0  0
  7 10  1  0  0  0  0
  7 11  1  0  0  0  0
  8 12  2  0  0  0  0
 10 13  2  0  0  0  0
 11 14  2  0  0  0  0
 11 15  1  0  0  0  0
 14 16  1  0  0  0  0
 15 17  2  0  0  0  0
 16 18  2  0  0  0  0
  9 12  1  0  0  0  0
 13 14  1  0  0  0  0
 17 18  1  0  0  0  0
M  END
>  <S/N>
29

>  <Compound ID>
C_030

>  <PubChem CID>
761839

>  <Isomeric SMILES>
C1=CC=C(C=C1)C(=O)CN2C3=CC=CC=C3N=N2

>  <IC50 (�M)>
4.91

>  <pIC50>
5.31

$$$$
C_031
Actelion Java MolfileCreator 1.0

 19 21  0  0  0  0  0  0  0  0999 V2000
    5.1962    1.5000   -0.0000 Br  0  0  0  0  0  0  0  0  0  0  0  0
    4.3301    1.0000   -0.0000 C   0  0  0  0  0  0  0  0  0  0  0  0
    3.4641    1.5000   -0.0000 C   0  0  0  0  0  0  0  0  0  0  0  0
    4.3301    0.0000   -0.0000 C   0  0  0  0  0  0  0  0  0  0  0  0
    2.5981    1.0000   -0.0000 C   0  0  0  0  0  0  0  0  0  0  0  0
    3.4641   -0.5000   -0.0000 C   0  0  0  0  0  0  0  0  0  0  0  0
    2.5981   -0.0000   -0.0000 C   0  0  0  0  0  0  0  0  0  0  0  0
    1.7321   -0.5000   -0.0000 C   0  0  0  0  0  0  0  0  0  0  0  0
    1.7321   -1.5000   -0.0000 O   0  0  0  0  0  0  0  0  0  0  0  0
    0.8660   -0.0000   -0.0000 C   0  0  0  0  0  0  0  0  0  0  0  0
    0.0000   -0.5000   -0.0000 N   0  0  0  0  0  0  0  0  0  0  0  0
   -0.9135   -0.0933   -0.0000 N   0  0  0  0  0  0  0  0  0  0  0  0
   -0.1045   -1.4945   -0.0000 C   0  0  0  0  0  0  0  0  0  0  0  0
   -1.5827   -0.8364   -0.0000 N   0  0  0  0  0  0  0  0  0  0  0  0
   -1.0827   -1.7024   -0.0000 C   0  0  0  0  0  0  0  0  0  0  0  0
    0.5646   -2.2377   -0.0000 C   0  0  0  0  0  0  0  0  0  0  0  0
   -1.3917   -2.6535   -0.0000 C   0  0  0  0  0  0  0  0  0  0  0  0
    0.2556   -3.1887   -0.0000 C   0  0  0  0  0  0  0  0  0  0  0  0
   -0.7226   -3.3966   -0.0000 C   0  0  0  0  0  0  0  0  0  0  0  0
  1  2  1  0  0  0  0
  2  3  2  0  0  0  0
  2  4  1  0  0  0  0
  3  5  1  0  0  0  0
  4  6  2  0  0  0  0
  5  7  2  0  0  0  0
  7  8  1  0  0  0  0
  8  9  2  0  0  0  0
  8 10  1  0  0  0  0
 10 11  1  0  0  0  0
 11 12  1  0  0  0  0
 11 13  1  0  0  0  0
 12 14  2  0  0  0  0
 13 15  2  0  0  0  0
 13 16  1  0  0  0  0
 15 17  1  0  0  0  0
 16 18  2  0  0  0  0
 17 19  2  0  0  0  0
  6  7  1  0  0  0  0
 14 15  1  0  0  0  0
 18 19  1  0  0  0  0
M  END
>  <S/N>
30

>  <Compound ID>
C_031

>  <PubChem CID>
761840

>  <Isomeric SMILES>
C1=CC=C2C(=C1)N=NN2CC(=O)C3=CC=C(C=C3)Br

>  <IC50 (�M)>
2.79

>  <pIC50>
5.55

$$$$
C_032
Actelion Java MolfileCreator 1.0

 19 21  0  0  0  0  0  0  0  0999 V2000
    2.5981   -0.0000   -0.0000 O   0  0  0  0  0  0  0  0  0  0  0  0
    1.7321   -0.5000   -0.0000 C   0  0  0  0  0  0  0  0  0  0  0  0
    1.7321   -1.5000   -0.0000 C   0  0  0  0  0  0  0  0  0  0  0  0
    0.8660   -0.0000   -0.0000 C   0  0  0  0  0  0  0  0  0  0  0  0
    0.8660   -2.0000   -0.0000 C   0  0  0  0  0  0  0  0  0  0  0  0
    2.5981   -2.0000   -0.0000 C   0  0  0  0  0  0  0  0  0  0  0  0
    0.0000   -0.5000   -0.0000 N   0  0  0  0  0  0  0  0  0  0  0  0
    0.8660   -3.0000   -0.0000 C   0  0  0  0  0  0  0  0  0  0  0  0
    2.5981   -3.0000   -0.0000 C   0  0  0  0  0  0  0  0  0  0  0  0
   -0.1045   -1.4945   -0.0000 N   0  0  0  0  0  0  0  0  0  0  0  0
   -0.9135   -0.0933   -0.0000 C   0  0  0  0  0  0  0  0  0  0  0  0
    1.7321   -3.5000   -0.0000 C   0  0  0  0  0  0  0  0  0  0  0  0
   -1.0827   -1.7024   -0.0000 N   0  0  0  0  0  0  0  0  0  0  0  0
   -1.5827   -0.8364   -0.0000 C   0  0  0  0  0  0  0  0  0  0  0  0
   -1.2226    0.8578   -0.0000 C   0  0  0  0  0  0  0  0  0  0  0  0
    1.7321   -4.5000   -0.0000 C   0  0  0  0  0  0  0  0  0  0  0  0
   -2.5608   -0.6285   -0.0000 C   0  0  0  0  0  0  0  0  0  0  0  0
   -2.2007    1.0657   -0.0000 C   0  0  0  0  0  0  0  0  0  0  0  0
   -2.8698    0.3226   -0.0000 C   0  0  0  0  0  0  0  0  0  0  0  0
  1  2  2  0  0  0  0
  2  3  1  0  0  0  0
  2  4  1  0  0  0  0
  3  5  2  0  0  0  0
  3  6  1  0  0  0  0
  4  7  1  0  0  0  0
  5  8  1  0  0  0  0
  6  9  2  0  0  0  0
  7 10  1  0  0  0  0
  7 11  1  0  0  0  0
  8 12  2  0  0  0  0
 10 13  2  0  0  0  0
 11 14  2  0  0  0  0
 11 15  1  0  0  0  0
 12 16  1  0  0  0  0
 14 17  1  0  0  0  0
 15 18  2  0  0  0  0
 17 19  2  0  0  0  0
  9 12  1  0  0  0  0
 13 14  1  0  0  0  0
 18 19  1  0  0  0  0
M  END
>  <S/N>
31

>  <Compound ID>
C_032

>  <PubChem CID>
761841

>  <Isomeric SMILES>
CC1=CC=C(C=C1)C(=O)CN2C3=CC=CC=C3N=N2

>  <IC50 (�M)>
4.78

>  <pIC50>
5.32

$$$$
C_033
Actelion Java MolfileCreator 1.0

 21 23  0  0  0  0  0  0  0  0999 V2000
    4.3301   -3.0000   -0.0000 O   0  0  0  0  0  0  0  0  0  0  0  0
    4.3301   -2.0000   -0.0000 N   0  0  0  0  0  0  0  0  0  0  0  0
    5.1962   -1.5000   -0.0000 O   0  0  0  0  0  0  0  0  0  0  0  0
    3.4641   -1.5000   -0.0000 C   0  0  0  0  0  0  0  0  0  0  0  0
    3.4641   -0.5000   -0.0000 C   0  0  0  0  0  0  0  0  0  0  0  0
    2.5981   -2.0000   -0.0000 C   0  0  0  0  0  0  0  0  0  0  0  0
    2.5981    0.0000   -0.0000 C   0  0  0  0  0  0  0  0  0  0  0  0
    4.3301   -0.0000   -0.0000 C   0  0  0  0  0  0  0  0  0  0  0  0
    1.7321   -1.5000   -0.0000 C   0  0  0  0  0  0  0  0  0  0  0  0
    1.7321   -0.5000   -0.0000 C   0  0  0  0  0  0  0  0  0  0  0  0
    0.8660   -0.0000   -0.0000 C   0  0  0  0  0  0  0  0  0  0  0  0
    0.8660    1.0000   -0.0000 O   0  0  0  0  0  0  0  0  0  0  0  0
    0.0000   -0.5000   -0.0000 N   0  0  0  0  0  0  0  0  0  0  0  0
   -0.9135   -0.0933   -0.0000 N   0  0  0  0  0  0  0  0  0  0  0  0
   -0.1045   -1.4945   -0.0000 C   0  0  0  0  0  0  0  0  0  0  0  0
   -1.5827   -0.8364   -0.0000 N   0  0  0  0  0  0  0  0  0  0  0  0
   -1.0827   -1.7024   -0.0000 C   0  0  0  0  0  0  0  0  0  0  0  0
    0.5646   -2.2377   -0.0000 C   0  0  0  0  0  0  0  0  0  0  0  0
   -1.3917   -2.6535   -0.0000 C   0  0  0  0  0  0  0  0  0  0  0  0
    0.2556   -3.1887   -0.0000 C   0  0  0  0  0  0  0  0  0  0  0  0
   -0.7226   -3.3966   -0.0000 C   0  0  0  0  0  0  0  0  0  0  0  0
  1  2  2  0  0  0  0
  2  3  1  0  0  0  0
  2  4  1  0  0  0  0
  4  5  2  0  0  0  0
  4  6  1  0  0  0  0
  5  7  1  0  0  0  0
  5  8  1  0  0  0  0
  6  9  2  0  0  0  0
  7 10  2  0  0  0  0
 10 11  1  0  0  0  0
 11 12  2  0  0  0  0
 11 13  1  0  0  0  0
 13 14  1  0  0  0  0
 13 15  1  0  0  0  0
 14 16  2  0  0  0  0
 15 17  2  0  0  0  0
 15 18  1  0  0  0  0
 17 19  1  0  0  0  0
 18 20  2  0  0  0  0
 19 21  2  0  0  0  0
  9 10  1  0  0  0  0
 16 17  1  0  0  0  0
 20 21  1  0  0  0  0
M  CHG  2   2   1   3  -1
M  END
>  <S/N>
32

>  <Compound ID>
C_033

>  <PubChem CID>
764214

>  <Isomeric SMILES>
CC1=C(C=CC(=C1)C(=O)N2C3=CC=CC=C3N=N2)[N+](=O)[O-]

>  <IC50 (�M)>
4.1

>  <pIC50>
5.39

$$$$
C_034
Actelion Java MolfileCreator 1.0

 19 21  0  0  0  0  0  0  0  0999 V2000
    2.5981    1.0000   -0.0000 F   0  0  0  0  0  0  0  0  0  0  0  0
    2.5981    0.0000   -0.0000 C   0  0  0  0  0  0  0  0  0  0  0  0
    1.7321   -0.5000   -0.0000 C   0  0  0  0  0  0  0  0  0  0  0  0
    3.4641   -0.5000   -0.0000 C   0  0  0  0  0  0  0  0  0  0  0  0
    1.7321   -1.5000   -0.0000 C   0  0  0  0  0  0  0  0  0  0  0  0
    0.8660   -0.0000   -0.0000 C   0  0  0  0  0  0  0  0  0  0  0  0
    3.4641   -1.5000   -0.0000 C   0  0  0  0  0  0  0  0  0  0  0  0
    0.8660   -2.0000   -0.0000 F   0  0  0  0  0  0  0  0  0  0  0  0
    2.5981   -2.0000   -0.0000 C   0  0  0  0  0  0  0  0  0  0  0  0
    0.8660    1.0000   -0.0000 O   0  0  0  0  0  0  0  0  0  0  0  0
    0.0000   -0.5000   -0.0000 N   0  0  0  0  0  0  0  0  0  0  0  0
   -0.1045   -1.4945   -0.0000 N   0  0  0  0  0  0  0  0  0  0  0  0
   -0.9135   -0.0933   -0.0000 C   0  0  0  0  0  0  0  0  0  0  0  0
   -1.0827   -1.7024   -0.0000 N   0  0  0  0  0  0  0  0  0  0  0  0
   -1.5827   -0.8364   -0.0000 C   0  0  0  0  0  0  0  0  0  0  0  0
   -1.2226    0.8578   -0.0000 C   0  0  0  0  0  0  0  0  0  0  0  0
   -2.5608   -0.6285   -0.0000 C   0  0  0  0  0  0  0  0  0  0  0  0
   -2.2007    1.0657   -0.0000 C   0  0  0  0  0  0  0  0  0  0  0  0
   -2.8698    0.3226   -0.0000 C   0  0  0  0  0  0  0  0  0  0  0  0
  1  2  1  0  0  0  0
  2  3  2  0  0  0  0
  2  4  1  0  0  0  0
  3  5  1  0  0  0  0
  3  6  1  0  0  0  0
  4  7  2  0  0  0  0
  5  8  1  0  0  0  0
  5  9  2  0  0  0  0
  6 10  2  0  0  0  0
  6 11  1  0  0  0  0
 11 12  1  0  0  0  0
 11 13  1  0  0  0  0
 12 14  2  0  0  0  0
 13 15  2  0  0  0  0
 13 16  1  0  0  0  0
 15 17  1  0  0  0  0
 16 18  2  0  0  0  0
 17 19  2  0  0  0  0
  7  9  1  0  0  0  0
 14 15  1  0  0  0  0
 18 19  1  0  0  0  0
M  END
>  <S/N>
33

>  <Compound ID>
C_034

>  <PubChem CID>
772214

>  <Isomeric SMILES>
C1=CC=C2C(=C1)N=NN2C(=O)C3=C(C=CC=C3F)F

>  <IC50 (�M)>
5.23

>  <pIC50>
5.28

$$$$
C_035
Actelion Java MolfileCreator 1.0

 18 20  0  0  0  0  0  0  0  0999 V2000
    6.4952   -3.0000   -0.0000 F   0  0  0  0  0  0  0  0  0  0  0  0
    5.1962   -2.2500   -0.0000 C   0  0  0  0  0  0  0  0  0  0  0  0
    5.1962   -0.7500   -0.0000 C   0  0  0  0  0  0  0  0  0  0  0  0
    3.8971   -3.0000   -0.0000 C   0  0  0  0  0  0  0  0  0  0  0  0
    3.8971    0.0000   -0.0000 C   0  0  0  0  0  0  0  0  0  0  0  0
    2.5981   -2.2500   -0.0000 C   0  0  0  0  0  0  0  0  0  0  0  0
    2.5981   -0.7500   -0.0000 C   0  0  0  0  0  0  0  0  0  0  0  0
    1.2990   -0.0000   -0.0000 C   0  0  0  0  0  0  0  0  0  0  0  0
    1.2990    1.5000   -0.0000 O   0  0  0  0  0  0  0  0  0  0  0  0
    0.0000   -0.7500   -0.0000 N   0  0  0  0  0  0  0  0  0  0  0  0
   -1.3703   -0.1399   -0.0000 N   0  0  0  0  0  0  0  0  0  0  0  0
   -0.1568   -2.2418   -0.0000 C   0  0  0  0  0  0  0  0  0  0  0  0
   -2.3740   -1.2546   -0.0000 N   0  0  0  0  0  0  0  0  0  0  0  0
   -1.6240   -2.5537   -0.0000 C   0  0  0  0  0  0  0  0  0  0  0  0
    0.8469   -3.3565   -0.0000 C   0  0  0  0  0  0  0  0  0  0  0  0
   -2.0875   -3.9802   -0.0000 C   0  0  0  0  0  0  0  0  0  0  0  0
    0.3834   -4.7831   -0.0000 C   0  0  0  0  0  0  0  0  0  0  0  0
   -1.0838   -5.0950   -0.0000 C   0  0  0  0  0  0  0  0  0  0  0  0
  1  2  1  0  0  0  0
  2  3  2  0  0  0  0
  2  4  1  0  0  0  0
  3  5  1  0  0  0  0
  4  6  2  0  0  0  0
  5  7  2  0  0  0  0
  7  8  1  0  0  0  0
  8  9  2  0  0  0  0
  8 10  1  0  0  0  0
 10 11  1  0  0  0  0
 10 12  1  0  0  0  0
 11 13  2  0  0  0  0
 12 14  2  0  0  0  0
 12 15  1  0  0  0  0
 14 16  1  0  0  0  0
 15 17  2  0  0  0  0
 16 18  2  0  0  0  0
  6  7  1  0  0  0  0
 13 14  1  0  0  0  0
 17 18  1  0  0  0  0
M  END
>  <S/N>
34

>  <Compound ID>
C_035

>  <PubChem CID>
785793

>  <Isomeric SMILES>
C1=CC=C2C(=C1)N=NN2C(=O)C3=CC=C(C=C3)F

>  <IC50 (�M)>
2.82

>  <pIC50>
5.55

$$$$
C_036
Actelion Java MolfileCreator 1.0

 19 21  0  0  0  0  0  0  0  0999 V2000
    1.7321   -0.5000   -0.0000 O   0  0  0  0  0  0  0  0  0  0  0  0
    0.8660   -0.0000   -0.0000 C   0  0  0  0  0  0  0  0  0  0  0  0
    0.8660    1.0000   -0.0000 N   0  0  0  0  0  0  0  0  0  0  0  0
    0.0000   -0.5000   -0.0000 C   0  0  0  0  0  0  0  0  0  0  0  0
    1.6750    1.5878   -0.0000 N   0  0  0  0  0  0  0  0  0  0  0  0
    0.0570    1.5878   -0.0000 C   0  0  0  0  0  0  0  0  0  0  0  0
   -0.8660    0.0000   -0.0000 C   0  0  0  0  0  0  0  0  0  0  0  0
   -0.0000   -1.5000   -0.0000 C   0  0  0  0  0  0  0  0  0  0  0  0
    1.3660    2.5388   -0.0000 N   0  0  0  0  0  0  0  0  0  0  0  0
    0.3660    2.5388   -0.0000 C   0  0  0  0  0  0  0  0  0  0  0  0
   -0.9211    1.3799   -0.0000 C   0  0  0  0  0  0  0  0  0  0  0  0
   -1.7321   -0.5000   -0.0000 C   0  0  0  0  0  0  0  0  0  0  0  0
   -0.8660   -2.0000   -0.0000 C   0  0  0  0  0  0  0  0  0  0  0  0
   -0.3031    3.2820   -0.0000 C   0  0  0  0  0  0  0  0  0  0  0  0
   -1.5903    2.1230   -0.0000 C   0  0  0  0  0  0  0  0  0  0  0  0
   -1.7321   -1.5000   -0.0000 C   0  0  0  0  0  0  0  0  0  0  0  0
   -2.5981    0.0000   -0.0000 C   0  0  0  0  0  0  0  0  0  0  0  0
   -1.2813    3.0741   -0.0000 C   0  0  0  0  0  0  0  0  0  0  0  0
   -2.5981   -2.0000   -0.0000 C   0  0  0  0  0  0  0  0  0  0  0  0
  1  2  2  0  0  0  0
  2  3  1  0  0  0  0
  2  4  1  0  0  0  0
  3  5  1  0  0  0  0
  3  6  1  0  0  0  0
  4  7  2  0  0  0  0
  4  8  1  0  0  0  0
  5  9  2  0  0  0  0
  6 10  2  0  0  0  0
  6 11  1  0  0  0  0
  7 12  1  0  0  0  0
  8 13  2  0  0  0  0
 10 14  1  0  0  0  0
 11 15  2  0  0  0  0
 12 16  2  0  0  0  0
 12 17  1  0  0  0  0
 14 18  2  0  0  0  0
 16 19  1  0  0  0  0
  9 10  1  0  0  0  0
 13 16  1  0  0  0  0
 15 18  1  0  0  0  0
M  END
>  <S/N>
35

>  <Compound ID>
C_036

>  <PubChem CID>
789010

>  <Isomeric SMILES>
CC1=C(C=C(C=C1)C(=O)N2C3=CC=CC=C3N=N2)C

>  <IC50 (�M)>
4.8

>  <pIC50>
5.32

$$$$
C_037
Actelion Java MolfileCreator 1.0

 24 27  0  0  0  0  0  0  0  0999 V2000
    2.5981   -0.0000   -0.0000 O   0  0  0  0  0  0  0  0  0  0  0  0
    1.7321   -0.5000   -0.0000 C   0  0  0  0  0  0  0  0  0  0  0  0
    1.7321   -1.5000   -0.0000 C   0  0  0  0  0  0  0  0  0  0  0  0
    0.8660   -0.0000   -0.0000 C   0  0  0  0  0  0  0  0  0  0  0  0
    0.8660   -2.0000   -0.0000 C   0  0  0  0  0  0  0  0  0  0  0  0
    2.5981   -2.0000   -0.0000 C   0  0  0  0  0  0  0  0  0  0  0  0
    0.0000   -0.5000   -0.0000 N   0  0  0  0  0  0  0  0  0  0  0  0
    0.8660   -3.0000   -0.0000 C   0  0  0  0  0  0  0  0  0  0  0  0
    2.5981   -3.0000   -0.0000 C   0  0  0  0  0  0  0  0  0  0  0  0
   -0.1045   -1.4945   -0.0000 N   0  0  0  0  0  0  0  0  0  0  0  0
   -0.9135   -0.0933   -0.0000 C   0  0  0  0  0  0  0  0  0  0  0  0
    1.7321   -3.5000   -0.0000 C   0  0  0  0  0  0  0  0  0  0  0  0
   -1.0827   -1.7024   -0.0000 N   0  0  0  0  0  0  0  0  0  0  0  0
   -1.5827   -0.8364   -0.0000 C   0  0  0  0  0  0  0  0  0  0  0  0
   -1.2226    0.8578   -0.0000 C   0  0  0  0  0  0  0  0  0  0  0  0
    1.7321   -4.5000   -0.0000 C   0  0  0  0  0  0  0  0  0  0  0  0
   -2.5608   -0.6285   -0.0000 C   0  0  0  0  0  0  0  0  0  0  0  0
   -2.2007    1.0657   -0.0000 C   0  0  0  0  0  0  0  0  0  0  0  0
    0.8660   -5.0000   -0.0000 C   0  0  0  0  0  0  0  0  0  0  0  0
    2.5981   -5.0000   -0.0000 C   0  0  0  0  0  0  0  0  0  0  0  0
   -2.8698    0.3226   -0.0000 C   0  0  0  0  0  0  0  0  0  0  0  0
    0.8660   -6.0000   -0.0000 C   0  0  0  0  0  0  0  0  0  0  0  0
    2.5981   -6.0000   -0.0000 C   0  0  0  0  0  0  0  0  0  0  0  0
    1.7321   -6.5000   -0.0000 C   0  0  0  0  0  0  0  0  0  0  0  0
  1  2  2  0  0  0  0
  2  3  1  0  0  0  0
  2  4  1  0  0  0  0
  3  5  2  0  0  0  0
  3  6  1  0  0  0  0
  4  7  1  0  0  0  0
  5  8  1  0  0  0  0
  6  9  2  0  0  0  0
  7 10  1  0  0  0  0
  7 11  1  0  0  0  0
  8 12  2  0  0  0  0
 10 13  2  0  0  0  0
 11 14  2  0  0  0  0
 11 15  1  0  0  0  0
 12 16  1  0  0  0  0
 14 17  1  0  0  0  0
 15 18  2  0  0  0  0
 16 19  2  0  0  0  0
 16 20  1  0  0  0  0
 17 21  2  0  0  0  0
 19 22  1  0  0  0  0
 20 23  2  0  0  0  0
 22 24  2  0  0  0  0
  9 12  1  0  0  0  0
 13 14  1  0  0  0  0
 18 21  1  0  0  0  0
 23 24  1  0  0  0  0
M  END
>  <S/N>
36

>  <Compound ID>
C_037

>  <PubChem CID>
795004

>  <Isomeric SMILES>
C1=CC=C(C=C1)C2=CC=C(C=C2)C(=O)CN3C4=CC=CC=C4N=N3

>  <IC50 (�M)>
4.98

>  <pIC50>
5.3

$$$$
C_038
Actelion Java MolfileCreator 1.0

 18 20  0  0  0  0  0  0  0  0999 V2000
    1.7321   -0.5000   -0.0000 O   0  0  0  0  0  0  0  0  0  0  0  0
    0.8660   -0.0000   -0.0000 C   0  0  0  0  0  0  0  0  0  0  0  0
    0.8660    1.0000   -0.0000 N   0  0  0  0  0  0  0  0  0  0  0  0
    0.0000   -0.5000   -0.0000 C   0  0  0  0  0  0  0  0  0  0  0  0
    1.6750    1.5878   -0.0000 N   0  0  0  0  0  0  0  0  0  0  0  0
    0.0570    1.5878   -0.0000 C   0  0  0  0  0  0  0  0  0  0  0  0
   -0.8660    0.0000   -0.0000 C   0  0  0  0  0  0  0  0  0  0  0  0
   -0.0000   -1.5000   -0.0000 C   0  0  0  0  0  0  0  0  0  0  0  0
    1.3660    2.5388   -0.0000 N   0  0  0  0  0  0  0  0  0  0  0  0
    0.3660    2.5388   -0.0000 C   0  0  0  0  0  0  0  0  0  0  0  0
   -0.9211    1.3799   -0.0000 C   0  0  0  0  0  0  0  0  0  0  0  0
   -1.7321   -0.5000   -0.0000 C   0  0  0  0  0  0  0  0  0  0  0  0
   -0.8660   -2.0000   -0.0000 C   0  0  0  0  0  0  0  0  0  0  0  0
   -0.3031    3.2820   -0.0000 C   0  0  0  0  0  0  0  0  0  0  0  0
   -1.5903    2.1230   -0.0000 C   0  0  0  0  0  0  0  0  0  0  0  0
   -1.7321   -1.5000   -0.0000 C   0  0  0  0  0  0  0  0  0  0  0  0
   -2.5981    0.0000   -0.0000 C   0  0  0  0  0  0  0  0  0  0  0  0
   -1.2813    3.0741   -0.0000 C   0  0  0  0  0  0  0  0  0  0  0  0
  1  2  2  0  0  0  0
  2  3  1  0  0  0  0
  2  4  1  0  0  0  0
  3  5  1  0  0  0  0
  3  6  1  0  0  0  0
  4  7  2  0  0  0  0
  4  8  1  0  0  0  0
  5  9  2  0  0  0  0
  6 10  2  0  0  0  0
  6 11  1  0  0  0  0
  7 12  1  0  0  0  0
  8 13  2  0  0  0  0
 10 14  1  0  0  0  0
 11 15  2  0  0  0  0
 12 16  2  0  0  0  0
 12 17  1  0  0  0  0
 14 18  2  0  0  0  0
  9 10  1  0  0  0  0
 13 16  1  0  0  0  0
 15 18  1  0  0  0  0
M  END
>  <S/N>
37

>  <Compound ID>
C_038

>  <PubChem CID>
834536

>  <Isomeric SMILES>
CC1=CC(=CC=C1)C(=O)N2C3=CC=CC=C3N=N2

>  <IC50 (�M)>
4.42

>  <pIC50>
5.35

$$$$
C_039
Actelion Java MolfileCreator 1.0

 19 21  0  0  0  0  0  0  0  0999 V2000
    1.7321   -0.5000   -0.0000 O   0  0  0  0  0  0  0  0  0  0  0  0
    0.8660   -0.0000   -0.0000 C   0  0  0  0  0  0  0  0  0  0  0  0
    0.8660    1.0000   -0.0000 N   0  0  0  0  0  0  0  0  0  0  0  0
    0.0000   -0.5000   -0.0000 C   0  0  0  0  0  0  0  0  0  0  0  0
    1.6750    1.5878   -0.0000 N   0  0  0  0  0  0  0  0  0  0  0  0
    0.0570    1.5878   -0.0000 C   0  0  0  0  0  0  0  0  0  0  0  0
    0.0000   -1.5000   -0.0000 C   0  0  0  0  0  0  0  0  0  0  0  0
   -0.8660   -0.0000   -0.0000 C   0  0  0  0  0  0  0  0  0  0  0  0
    1.3660    2.5388   -0.0000 N   0  0  0  0  0  0  0  0  0  0  0  0
    0.3660    2.5388   -0.0000 C   0  0  0  0  0  0  0  0  0  0  0  0
   -0.9211    1.3799   -0.0000 C   0  0  0  0  0  0  0  0  0  0  0  0
    0.8660   -2.0000   -0.0000 O   0  0  0  0  0  0  0  0  0  0  0  0
   -0.8660   -2.0000   -0.0000 C   0  0  0  0  0  0  0  0  0  0  0  0
   -1.7321   -0.5000   -0.0000 C   0  0  0  0  0  0  0  0  0  0  0  0
   -0.3031    3.2820   -0.0000 C   0  0  0  0  0  0  0  0  0  0  0  0
   -1.5903    2.1230   -0.0000 C   0  0  0  0  0  0  0  0  0  0  0  0
    0.8660   -3.0000   -0.0000 C   0  0  0  0  0  0  0  0  0  0  0  0
   -1.7321   -1.5000   -0.0000 C   0  0  0  0  0  0  0  0  0  0  0  0
   -1.2813    3.0741   -0.0000 C   0  0  0  0  0  0  0  0  0  0  0  0
  1  2  2  0  0  0  0
  2  3  1  0  0  0  0
  2  4  1  0  0  0  0
  3  5  1  0  0  0  0
  3  6  1  0  0  0  0
  4  7  2  0  0  0  0
  4  8  1  0  0  0  0
  5  9  2  0  0  0  0
  6 10  2  0  0  0  0
  6 11  1  0  0  0  0
  7 12  1  0  0  0  0
  7 13  1  0  0  0  0
  8 14  2  0  0  0  0
 10 15  1  0  0  0  0
 11 16  2  0  0  0  0
 12 17  1  0  0  0  0
 13 18  2  0  0  0  0
 15 19  2  0  0  0  0
  9 10  1  0  0  0  0
 14 18  1  0  0  0  0
 16 19  1  0  0  0  0
M  END
>  <S/N>
38

>  <Compound ID>
C_039

>  <PubChem CID>
898930

>  <Isomeric SMILES>
COC1=CC=CC=C1C(=O)N2C3=CC=CC=C3N=N2

>  <IC50 (�M)>
4.79

>  <pIC50>
5.32

$$$$
C_040
Actelion Java MolfileCreator 1.0

 13 14  0  0  0  0  0  0  0  0999 V2000
    0.9706    0.9945   -0.0000 S   0  0  0  0  0  0  0  0  0  0  0  0
    0.8660   -0.0000   -0.0000 C   0  0  0  0  0  0  0  0  0  0  0  0
    1.9487    1.2024   -0.0000 C   0  0  0  0  0  0  0  0  0  0  0  0
    1.7796   -0.4067   -0.0000 N   0  0  0  0  0  0  0  0  0  0  0  0
    0.0000   -0.5000   -0.0000 N   0  0  0  0  0  0  0  0  0  0  0  0
    2.4487    0.3364   -0.0000 N   0  0  0  0  0  0  0  0  0  0  0  0
    2.3554    2.1160   -0.0000 C   0  0  0  0  0  0  0  0  0  0  0  0
    3.3500    2.2205   -0.0000 C   0  0  0  0  0  0  0  0  0  0  0  0
    1.7677    2.9250   -0.0000 C   0  0  0  0  0  0  0  0  0  0  0  0
    3.7567    3.1341   -0.0000 C   0  0  0  0  0  0  0  0  0  0  0  0
    2.1744    3.8385   -0.0000 C   0  0  0  0  0  0  0  0  0  0  0  0
    3.1689    3.9431   -0.0000 C   0  0  0  0  0  0  0  0  0  0  0  0
    3.5756    4.8566   -0.0000 O   0  0  0  0  0  0  0  0  0  0  0  0
  1  2  1  0  0  0  0
  1  3  1  0  0  0  0
  2  4  2  0  0  0  0
  2  5  1  0  0  0  0
  3  6  2  0  0  0  0
  3  7  1  0  0  0  0
  7  8  2  0  0  0  0
  7  9  1  0  0  0  0
  8 10  1  0  0  0  0
  9 11  2  0  0  0  0
 10 12  2  0  0  0  0
 12 13  1  0  0  0  0
  4  6  1  0  0  0  0
 11 12  1  0  0  0  0
M  END
>  <S/N>
39

>  <Compound ID>
C_040

>  <PubChem CID>
936815

>  <Isomeric SMILES>
C1=CC(=CC=C1C2=NN=C(S2)N)O

>  <IC50 (�M)>
2.3

>  <pIC50>
5.64

$$$$
C_041
Actelion Java MolfileCreator 1.0

 21 23  0  0  0  0  0  0  0  0999 V2000
    4.3301    3.0000   -0.0000 O   0  0  0  0  0  0  0  0  0  0  0  0
    3.4641    2.5000   -0.0000 N   0  0  0  0  0  0  0  0  0  0  0  0
    2.5981    3.0000   -0.0000 O   0  0  0  0  0  0  0  0  0  0  0  0
    3.4641    1.5000   -0.0000 C   0  0  0  0  0  0  0  0  0  0  0  0
    2.5981    1.0000   -0.0000 C   0  0  0  0  0  0  0  0  0  0  0  0
    4.3301    1.0000   -0.0000 C   0  0  0  0  0  0  0  0  0  0  0  0
    2.5981   -0.0000   -0.0000 C   0  0  0  0  0  0  0  0  0  0  0  0
    4.3301   -0.0000   -0.0000 C   0  0  0  0  0  0  0  0  0  0  0  0
    1.7321   -0.5000   -0.0000 C   0  0  0  0  0  0  0  0  0  0  0  0
    3.4641   -0.5000   -0.0000 C   0  0  0  0  0  0  0  0  0  0  0  0
    1.7321   -1.5000   -0.0000 O   0  0  0  0  0  0  0  0  0  0  0  0
    0.8660   -0.0000   -0.0000 C   0  0  0  0  0  0  0  0  0  0  0  0
    0.0000   -0.5000   -0.0000 N   0  0  0  0  0  0  0  0  0  0  0  0
   -0.9135   -0.0933   -0.0000 N   0  0  0  0  0  0  0  0  0  0  0  0
   -0.1045   -1.4945   -0.0000 C   0  0  0  0  0  0  0  0  0  0  0  0
   -1.5827   -0.8364   -0.0000 N   0  0  0  0  0  0  0  0  0  0  0  0
   -1.0827   -1.7024   -0.0000 C   0  0  0  0  0  0  0  0  0  0  0  0
    0.5646   -2.2377   -0.0000 C   0  0  0  0  0  0  0  0  0  0  0  0
   -1.3917   -2.6535   -0.0000 C   0  0  0  0  0  0  0  0  0  0  0  0
    0.2556   -3.1887   -0.0000 C   0  0  0  0  0  0  0  0  0  0  0  0
   -0.7226   -3.3966   -0.0000 C   0  0  0  0  0  0  0  0  0  0  0  0
  1  2  2  0  0  0  0
  2  3  1  0  0  0  0
  2  4  1  0  0  0  0
  4  5  2  0  0  0  0
  4  6  1  0  0  0  0
  5  7  1  0  0  0  0
  6  8  2  0  0  0  0
  7  9  1  0  0  0  0
  7 10  2  0  0  0  0
  9 11  2  0  0  0  0
  9 12  1  0  0  0  0
 12 13  1  0  0  0  0
 13 14  1  0  0  0  0
 13 15  1  0  0  0  0
 14 16  2  0  0  0  0
 15 17  2  0  0  0  0
 15 18  1  0  0  0  0
 17 19  1  0  0  0  0
 18 20  2  0  0  0  0
 19 21  2  0  0  0  0
  8 10  1  0  0  0  0
 16 17  1  0  0  0  0
 20 21  1  0  0  0  0
M  CHG  2   2   1   3  -1
M  END
>  <S/N>
40

>  <Compound ID>
C_041

>  <PubChem CID>
2168077

>  <Isomeric SMILES>
C1=CC=C2C(=C1)N=NN2CC(=O)C3=CC(=CC=C3)[N+](=O)[O-]

>  <IC50 (�M)>
4

>  <pIC50>
5.4

$$$$
C_042
Actelion Java MolfileCreator 1.0

 24 27  0  0  0  0  0  0  0  0999 V2000
    5.3077    4.8566   -0.0000 Cl  0  0  0  0  0  0  0  0  0  0  0  0
    4.9010    3.9431   -0.0000 C   0  0  0  0  0  0  0  0  0  0  0  0
    3.9064    3.8385   -0.0000 C   0  0  0  0  0  0  0  0  0  0  0  0
    5.4887    3.1341   -0.0000 C   0  0  0  0  0  0  0  0  0  0  0  0
    3.4997    2.9250   -0.0000 C   0  0  0  0  0  0  0  0  0  0  0  0
    5.0820    2.2205   -0.0000 C   0  0  0  0  0  0  0  0  0  0  0  0
    4.0875    2.1160   -0.0000 C   0  0  0  0  0  0  0  0  0  0  0  0
    3.6808    1.2024   -0.0000 C   0  0  0  0  0  0  0  0  0  0  0  0
    2.7026    0.9945   -0.0000 N   0  0  0  0  0  0  0  0  0  0  0  0
    4.1808    0.3364   -0.0000 C   0  0  0  0  0  0  0  0  0  0  0  0
    2.5981   -0.0000   -0.0000 C   0  0  0  0  0  0  0  0  0  0  0  0
    3.5116   -0.4067   -0.0000 S   0  0  0  0  0  0  0  0  0  0  0  0
    1.7321   -0.5000   -0.0000 N   0  0  0  0  0  0  0  0  0  0  0  0
    0.8660   -0.0000   -0.0000 N   0  0  0  0  0  0  0  0  0  0  0  0
    0.0000   -0.5000   -0.0000 C   0  0  0  0  0  0  0  0  0  0  0  0
   -0.9135   -0.0933   -0.0000 C   0  0  0  0  0  0  0  0  0  0  0  0
   -0.1045   -1.4945   -0.0000 C   0  0  0  0  0  0  0  0  0  0  0  0
   -1.1215    0.8849   -0.0000 O   0  0  0  0  0  0  0  0  0  0  0  0
   -1.5827   -0.8364   -0.0000 N   0  0  0  0  0  0  0  0  0  0  0  0
   -1.0827   -1.7024   -0.0000 C   0  0  0  0  0  0  0  0  0  0  0  0
    0.5646   -2.2377   -0.0000 C   0  0  0  0  0  0  0  0  0  0  0  0
   -1.3917   -2.6535   -0.0000 C   0  0  0  0  0  0  0  0  0  0  0  0
    0.2556   -3.1887   -0.0000 C   0  0  0  0  0  0  0  0  0  0  0  0
   -0.7226   -3.3966   -0.0000 C   0  0  0  0  0  0  0  0  0  0  0  0
  1  2  1  0  0  0  0
  2  3  2  0  0  0  0
  2  4  1  0  0  0  0
  3  5  1  0  0  0  0
  4  6  2  0  0  0  0
  5  7  2  0  0  0  0
  7  8  1  0  0  0  0
  8  9  1  0  0  0  0
  8 10  2  0  0  0  0
  9 11  2  0  0  0  0
 10 12  1  0  0  0  0
 11 13  1  0  0  0  0
 13 14  2  3  0  0  0
 14 15  1  0  0  0  0
 15 16  2  0  0  0  0
 15 17  1  0  0  0  0
 16 18  1  0  0  0  0
 16 19  1  0  0  0  0
 17 20  2  0  0  0  0
 17 21  1  0  0  0  0
 20 22  1  0  0  0  0
 21 23  2  0  0  0  0
 22 24  2  0  0  0  0
  6  7  1  0  0  0  0
 11 12  1  0  0  0  0
 19 20  1  0  0  0  0
 23 24  1  0  0  0  0
M  END
>  <S/N>
41

>  <Compound ID>
C_042

>  <PubChem CID>
2814554

>  <Isomeric SMILES>
C1=CC=C2C(=C1)C(=C(N2)O)N=NC3=NC(=CS3)C4=CC=C(C=C4)Cl

>  <IC50 (�M)>
5.3

>  <pIC50>
5.28

$$$$
C_043
Actelion Java MolfileCreator 1.0

 28 33  0  0  0  0  0  0  0  0999 V2000
    1.3041   -0.0000   -0.0000 O   0  0  0  0  0  0  0  0  0  0  0  0
    0.0000   -0.7529   -0.0000 C   0  0  0  0  0  0  0  0  0  0  0  0
   -1.3757   -0.1404   -0.0000 N   0  0  0  0  0  0  0  0  0  0  0  0
   -0.1574   -2.2506   -0.0000 C   0  0  0  0  0  0  0  0  0  0  0  0
   -2.3834   -1.2595   -0.0000 C   0  0  0  0  0  0  0  0  0  0  0  0
   -1.6304   -2.5637   -0.0000 C   0  0  0  0  0  0  0  0  0  0  0  0
    0.9617   -3.2582   -0.0000 C   0  0  0  0  0  0  0  0  0  0  0  0
   -0.5472   -3.7052   -0.0000 C   0  0  0  0  0  0  0  0  0  0  0  0
   -3.8893   -1.2595   -0.0000 C   0  0  0  0  0  0  0  0  0  0  0  0
   -2.4514   -3.8083   -0.0000 C   0  0  0  0  0  0  0  0  0  0  0  0
    2.4347   -2.9451   -0.0000 C   0  0  0  0  0  0  0  0  0  0  0  0
    0.9047   -4.6156   -0.0000 C   0  0  0  0  0  0  0  0  0  0  0  0
    0.3180   -4.9180   -0.0000 C   0  0  0  0  0  0  0  0  0  0  0  0
   -1.9190   -4.2746   -0.0000 C   0  0  0  0  0  0  0  0  0  0  0  0
   -4.6422   -2.5637   -0.0000 C   0  0  0  0  0  0  0  0  0  0  0  0
   -3.8893   -3.8678   -0.0000 C   0  0  0  0  0  0  0  0  0  0  0  0
    3.1876   -4.2493   -0.0000 C   0  0  0  0  0  0  0  0  0  0  0  0
    3.1876   -1.6410   -0.0000 C   0  0  0  0  0  0  0  0  0  0  0  0
    2.3609   -5.3184   -0.0000 N   0  0  0  0  0  0  0  0  0  0  0  0
   -0.4196   -6.1384   -0.0000 C   0  0  0  0  0  0  0  0  0  0  0  0
    1.9035   -4.7978   -0.0000 C   0  0  0  0  0  0  0  0  0  0  0  0
   -1.8742   -5.7487   -0.0000 N   0  0  0  0  0  0  0  0  0  0  0  0
    4.6935   -4.2493   -0.0000 C   0  0  0  0  0  0  0  0  0  0  0  0
    4.6935   -1.6410   -0.0000 C   0  0  0  0  0  0  0  0  0  0  0  0
    0.2640   -7.4802   -0.0000 C   0  0  0  0  0  0  0  0  0  0  0  0
    2.5880   -6.2961   -0.0000 C   0  0  0  0  0  0  0  0  0  0  0  0
    5.4465   -2.9451   -0.0000 C   0  0  0  0  0  0  0  0  0  0  0  0
    1.7679   -7.5590   -0.0000 C   0  0  0  0  0  0  0  0  0  0  0  0
  1  2  2  0  0  0  0
  2  3  1  0  0  0  0
  2  4  1  0  0  0  0
  3  5  1  0  0  0  0
  4  6  1  0  0  0  0
  4  7  1  0  0  0  0
  4  8  1  0  0  0  0
  5  9  1  0  0  0  0
  6 10  1  0  0  0  0
  7 11  1  0  0  0  0
  7 12  2  0  0  0  0
  8 13  1  0  0  0  0
  8 14  2  0  0  0  0
  9 15  2  0  0  0  0
 10 16  2  0  0  0  0
 11 17  2  0  0  0  0
 11 18  1  0  0  0  0
 12 19  1  0  0  0  0
 13 20  2  0  0  0  0
 13 21  1  0  0  0  0
 14 22  1  0  0  0  0
 17 23  1  0  0  0  0
 18 24  2  0  0  0  0
 20 25  1  0  0  0  0
 21 26  2  0  0  0  0
 23 27  2  0  0  0  0
 25 28  2  0  0  0  0
  5  6  2  0  0  0  0
 15 16  1  0  0  0  0
 17 19  1  0  0  0  0
 20 22  1  0  0  0  0
 24 27  1  0  0  0  0
 26 28  1  0  0  0  0
M  END
>  <S/N>
42

>  <Compound ID>
C_043

>  <PubChem CID>
2883607

>  <Isomeric SMILES>
C1=CC=C2C(=C1)C(=CN2)C3(C4=CC=CC=C4NC3=O)C5=CNC6=CC=CC=C65

>  <IC50 (�M)>
5.9

>  <pIC50>
5.23

$$$$
C_044
Actelion Java MolfileCreator 1.0

 29 34  0  0  0  0  0  0  0  0999 V2000
    7.4851    1.8187   -0.0000 Cl  0  0  0  0  0  0  0  0  0  0  0  0
    5.9726    1.8187   -0.0000 C   0  0  0  0  0  0  0  0  0  0  0  0
    5.2163    0.5088   -0.0000 C   0  0  0  0  0  0  0  0  0  0  0  0
    5.2163    3.1286   -0.0000 C   0  0  0  0  0  0  0  0  0  0  0  0
    3.7038    0.5088   -0.0000 C   0  0  0  0  0  0  0  0  0  0  0  0
    3.7038    3.1286   -0.0000 C   0  0  0  0  0  0  0  0  0  0  0  0
    2.9475    1.8187   -0.0000 C   0  0  0  0  0  0  0  0  0  0  0  0
    2.6917   -0.6152   -0.0000 C   0  0  0  0  0  0  0  0  0  0  0  0
    1.4680    1.5043   -0.0000 N   0  0  0  0  0  0  0  0  0  0  0  0
    1.3099   -0.0000   -0.0000 C   0  0  0  0  0  0  0  0  0  0  0  0
    3.0062   -2.0947   -0.0000 C   0  0  0  0  0  0  0  0  0  0  0  0
    1.5162   -1.5671   -0.0000 C   0  0  0  0  0  0  0  0  0  0  0  0
    0.0768   -0.5996   -0.0000 O   0  0  0  0  0  0  0  0  0  0  0  0
    4.3879   -2.7099   -0.0000 C   0  0  0  0  0  0  0  0  0  0  0  0
    2.1512   -3.2744   -0.0000 C   0  0  0  0  0  0  0  0  0  0  0  0
    0.0518   -1.2655   -0.0000 C   0  0  0  0  0  0  0  0  0  0  0  0
    1.5168   -3.0497   -0.0000 C   0  0  0  0  0  0  0  0  0  0  0  0
    4.2298   -4.2142   -0.0000 C   0  0  0  0  0  0  0  0  0  0  0  0
    5.7697   -2.0947   -0.0000 C   0  0  0  0  0  0  0  0  0  0  0  0
    2.7503   -4.5286   -0.0000 N   0  0  0  0  0  0  0  0  0  0  0  0
   -0.7686   -2.4441   -0.0000 C   0  0  0  0  0  0  0  0  0  0  0  0
   -0.6315    0.1721   -0.0000 C   0  0  0  0  0  0  0  0  0  0  0  0
    0.1833   -3.6196   -0.0000 N   0  0  0  0  0  0  0  0  0  0  0  0
    5.4535   -5.1032   -0.0000 C   0  0  0  0  0  0  0  0  0  0  0  0
    6.9934   -2.9838   -0.0000 C   0  0  0  0  0  0  0  0  0  0  0  0
   -2.2791   -2.3650   -0.0000 C   0  0  0  0  0  0  0  0  0  0  0  0
   -2.1419    0.2512   -0.0000 C   0  0  0  0  0  0  0  0  0  0  0  0
    6.8353   -4.4880   -0.0000 C   0  0  0  0  0  0  0  0  0  0  0  0
   -2.9657   -1.0173   -0.0000 C   0  0  0  0  0  0  0  0  0  0  0  0
  1  2  1  0  0  0  0
  2  3  2  0  0  0  0
  2  4  1  0  0  0  0
  3  5  1  0  0  0  0
  4  6  2  0  0  0  0
  5  7  2  0  0  0  0
  5  8  1  0  0  0  0
  7  9  1  0  0  0  0
  8 10  1  0  0  0  0
  8 11  1  0  0  0  0
  8 12  1  0  0  0  0
 10 13  2  0  0  0  0
 11 14  1  0  0  0  0
 11 15  2  0  0  0  0
 12 16  1  0  0  0  0
 12 17  2  0  0  0  0
 14 18  2  0  0  0  0
 14 19  1  0  0  0  0
 15 20  1  0  0  0  0
 16 21  2  0  0  0  0
 16 22  1  0  0  0  0
 17 23  1  0  0  0  0
 18 24  1  0  0  0  0
 19 25  2  0  0  0  0
 21 26  1  0  0  0  0
 22 27  2  0  0  0  0
 24 28  2  0  0  0  0
 26 29  2  0  0  0  0
  6  7  1  0  0  0  0
  9 10  1  0  0  0  0
 18 20  1  0  0  0  0
 21 23  1  0  0  0  0
 25 28  1  0  0  0  0
 27 29  1  0  0  0  0
M  END
>  <S/N>
43

>  <Compound ID>
C_044

>  <PubChem CID>
2948971

>  <Isomeric SMILES>
C1=CC=C2C(=C1)C(=CN2)C3(C4=C(C=CC(=C4)Cl)NC3=O)C5=CNC6=CC=CC=C65

>  <IC50 (�M)>
5.9

>  <pIC50>
5.23

$$$$
C_045
Actelion Java MolfileCreator 1.0

 30 35  0  0  0  0  0  0  0  0999 V2000
    1.3066   -0.0000   -0.0000 O   0  0  0  0  0  0  0  0  0  0  0  0
    0.0000   -0.7544   -0.0000 C   0  0  0  0  0  0  0  0  0  0  0  0
   -1.3783   -0.1407   -0.0000 N   0  0  0  0  0  0  0  0  0  0  0  0
   -0.1577   -2.2548   -0.0000 C   0  0  0  0  0  0  0  0  0  0  0  0
   -2.3878   -1.2619   -0.0000 C   0  0  0  0  0  0  0  0  0  0  0  0
   -1.6335   -2.5685   -0.0000 C   0  0  0  0  0  0  0  0  0  0  0  0
    0.9635   -3.2644   -0.0000 C   0  0  0  0  0  0  0  0  0  0  0  0
   -0.5482   -3.7122   -0.0000 C   0  0  0  0  0  0  0  0  0  0  0  0
   -3.8966   -1.2619   -0.0000 C   0  0  0  0  0  0  0  0  0  0  0  0
   -2.3757   -3.7418   -0.0000 C   0  0  0  0  0  0  0  0  0  0  0  0
    2.4393   -2.9507   -0.0000 C   0  0  0  0  0  0  0  0  0  0  0  0
    0.9652   -4.7177   -0.0000 C   0  0  0  0  0  0  0  0  0  0  0  0
   -1.9271   -4.2890   -0.0000 C   0  0  0  0  0  0  0  0  0  0  0  0
    0.3216   -4.9083   -0.0000 C   0  0  0  0  0  0  0  0  0  0  0  0
   -4.6510   -2.5685   -0.0000 C   0  0  0  0  0  0  0  0  0  0  0  0
   -4.0089   -3.7406   -0.0000 C   0  0  0  0  0  0  0  0  0  0  0  0
    3.1936   -4.2573   -0.0000 C   0  0  0  0  0  0  0  0  0  0  0  0
    3.1936   -1.6441   -0.0000 C   0  0  0  0  0  0  0  0  0  0  0  0
    2.1841   -5.3785   -0.0000 N   0  0  0  0  0  0  0  0  0  0  0  0
   -1.8778   -5.7595   -0.0000 C   0  0  0  0  0  0  0  0  0  0  0  0
   -3.2840   -3.4359   -0.0000 C   0  0  0  0  0  0  0  0  0  0  0  0
   -0.4204   -6.1500   -0.0000 N   0  0  0  0  0  0  0  0  0  0  0  0
    4.7024   -4.2573   -0.0000 C   0  0  0  0  0  0  0  0  0  0  0  0
    4.7024   -1.6441   -0.0000 C   0  0  0  0  0  0  0  0  0  0  0  0
    2.4978   -6.8543   -0.0000 C   0  0  0  0  0  0  0  0  0  0  0  0
   -3.1431   -6.5813   -0.0000 C   0  0  0  0  0  0  0  0  0  0  0  0
   -4.5664   -4.3896   -0.0000 C   0  0  0  0  0  0  0  0  0  0  0  0
    0.1202   -7.5586   -0.0000 C   0  0  0  0  0  0  0  0  0  0  0  0
    5.4568   -2.9507   -0.0000 C   0  0  0  0  0  0  0  0  0  0  0  0
   -4.4874   -5.8963   -0.0000 C   0  0  0  0  0  0  0  0  0  0  0  0
  1  2  2  0  0  0  0
  2  3  1  0  0  0  0
  2  4  1  0  0  0  0
  3  5  1  0  0  0  0
  4  6  1  0  0  0  0
  4  7  1  0  0  0  0
  4  8  1  0  0  0  0
  5  9  1  0  0  0  0
  6 10  1  0  0  0  0
  7 11  1  0  0  0  0
  7 12  2  0  0  0  0
  8 13  1  0  0  0  0
  8 14  2  0  0  0  0
  9 15  2  0  0  0  0
 10 16  2  0  0  0  0
 11 17  2  0  0  0  0
 11 18  1  0  0  0  0
 12 19  1  0  0  0  0
 13 20  2  0  0  0  0
 13 21  1  0  0  0  0
 14 22  1  0  0  0  0
 17 23  1  0  0  0  0
 18 24  2  0  0  0  0
 19 25  1  0  0  0  0
 20 26  1  0  0  0  0
 21 27  2  0  0  0  0
 22 28  1  0  0  0  0
 23 29  2  0  0  0  0
 26 30  2  0  0  0  0
  5  6  2  0  0  0  0
 15 16  1  0  0  0  0
 17 19  1  0  0  0  0
 20 22  1  0  0  0  0
 24 29  1  0  0  0  0
 27 30  1  0  0  0  0
M  END
>  <S/N>
44

>  <Compound ID>
C_045

>  <PubChem CID>
2949282

>  <Isomeric SMILES>
CN1C=C(C2=CC=CC=C21)C3(C4=CC=CC=C4NC3=O)C5=CN(C6=CC=CC=C65)C

>  <IC50 (�M)>
5.9

>  <pIC50>
5.23

$$$$
C_046
Actelion Java MolfileCreator 1.0

 29 33  0  0  0  0  0  0  0  0999 V2000
    3.4641   -0.5000   -0.0000 S   0  0  0  0  0  0  0  0  0  0  0  0
    4.3301   -0.0000   -0.0000 C   0  0  0  0  0  0  0  0  0  0  0  0
    2.5981   -0.0000   -0.0000 C   0  0  0  0  0  0  0  0  0  0  0  0
    5.2437   -0.4067   -0.0000 N   0  0  0  0  0  0  0  0  0  0  0  0
    4.4347    0.9945   -0.0000 N   0  0  0  0  0  0  0  0  0  0  0  0
    1.7321   -0.5000   -0.0000 C   0  0  0  0  0  0  0  0  0  0  0  0
    5.9128    0.3364   -0.0000 C   0  0  0  0  0  0  0  0  0  0  0  0
    5.4128    1.2024   -0.0000 C   0  0  0  0  0  0  0  0  0  0  0  0
    1.7321   -1.5000   -0.0000 O   0  0  0  0  0  0  0  0  0  0  0  0
    0.8660   -0.0000   -0.0000 N   0  0  0  0  0  0  0  0  0  0  0  0
    6.9128    0.3364   -0.0000 C   0  0  0  0  0  0  0  0  0  0  0  0
    5.9128    2.0685   -0.0000 C   0  0  0  0  0  0  0  0  0  0  0  0
    0.0000   -0.5000   -0.0000 C   0  0  0  0  0  0  0  0  0  0  0  0
    7.4128    1.2024   -0.0000 C   0  0  0  0  0  0  0  0  0  0  0  0
    6.9128    2.0685   -0.0000 C   0  0  0  0  0  0  0  0  0  0  0  0
   -0.0000   -1.5000   -0.0000 C   0  0  0  0  0  0  0  0  0  0  0  0
   -0.8660    0.0000   -0.0000 C   0  0  0  0  0  0  0  0  0  0  0  0
   -0.8660   -2.0000   -0.0000 C   0  0  0  0  0  0  0  0  0  0  0  0
   -1.7321   -0.5000   -0.0000 C   0  0  0  0  0  0  0  0  0  0  0  0
   -1.7321   -1.5000   -0.0000 C   0  0  0  0  0  0  0  0  0  0  0  0
   -1.0739   -2.9781   -0.0000 C   0  0  0  0  0  0  0  0  0  0  0  0
   -2.4752   -2.1691   -0.0000 N   0  0  0  0  0  0  0  0  0  0  0  0
   -2.0685   -3.0827   -0.0000 C   0  0  0  0  0  0  0  0  0  0  0  0
   -0.4862   -3.7872   -0.0000 C   0  0  0  0  0  0  0  0  0  0  0  0
   -3.4533   -1.9612   -0.0000 C   0  0  0  0  0  0  0  0  0  0  0  0
   -2.4752   -3.9962   -0.0000 C   0  0  0  0  0  0  0  0  0  0  0  0
   -0.8929   -4.7007   -0.0000 C   0  0  0  0  0  0  0  0  0  0  0  0
   -4.1225   -2.7044   -0.0000 C   0  0  0  0  0  0  0  0  0  0  0  0
   -1.8874   -4.8052   -0.0000 C   0  0  0  0  0  0  0  0  0  0  0  0
  1  2  1  0  0  0  0
  1  3  1  0  0  0  0
  2  4  2  0  0  0  0
  2  5  1  0  0  0  0
  3  6  1  0  0  0  0
  4  7  1  0  0  0  0
  5  8  1  0  0  0  0
  6  9  2  0  0  0  0
  6 10  1  0  0  0  0
  7 11  1  0  0  0  0
  8 12  1  0  0  0  0
 10 13  1  0  0  0  0
 11 14  2  0  0  0  0
 12 15  2  0  0  0  0
 13 16  2  0  0  0  0
 13 17  1  0  0  0  0
 16 18  1  0  0  0  0
 17 19  2  0  0  0  0
 18 20  2  0  0  0  0
 18 21  1  0  0  0  0
 20 22  1  0  0  0  0
 21 23  2  0  0  0  0
 21 24  1  0  0  0  0
 22 25  1  0  0  0  0
 23 26  1  0  0  0  0
 24 27  2  0  0  0  0
 25 28  1  0  0  0  0
 26 29  2  0  0  0  0
  7  8  2  0  0  0  0
 14 15  1  0  0  0  0
 19 20  1  0  0  0  0
 22 23  1  0  0  0  0
 27 29  1  0  0  0  0
M  END
>  <S/N>
45

>  <Compound ID>
C_046

>  <PubChem CID>
3438551

>  <Isomeric SMILES>
CCN1C2=C(C=C(C=C2)NC(=O)CSC3=NC4=CC=CC=C4N3)C5=CC=CC=C51

>  <IC50 (�M)>
0.17

>  <pIC50>
6.77

$$$$
C_047
Actelion Java MolfileCreator 1.0

 20 22  0  0  0  0  0  0  0  0999 V2000
    2.5981   -0.0000   -0.0000 O   0  0  0  0  0  0  0  0  0  0  0  0
    1.7321   -0.5000   -0.0000 C   0  0  0  0  0  0  0  0  0  0  0  0
    1.7321   -1.5000   -0.0000 C   0  0  0  0  0  0  0  0  0  0  0  0
    0.8660   -0.0000   -0.0000 C   0  0  0  0  0  0  0  0  0  0  0  0
    0.8660   -2.0000   -0.0000 C   0  0  0  0  0  0  0  0  0  0  0  0
    2.5981   -2.0000   -0.0000 C   0  0  0  0  0  0  0  0  0  0  0  0
    0.0000   -0.5000   -0.0000 N   0  0  0  0  0  0  0  0  0  0  0  0
    0.8660   -3.0000   -0.0000 C   0  0  0  0  0  0  0  0  0  0  0  0
    2.5981   -3.0000   -0.0000 C   0  0  0  0  0  0  0  0  0  0  0  0
   -0.1045   -1.4945   -0.0000 N   0  0  0  0  0  0  0  0  0  0  0  0
   -0.9135   -0.0933   -0.0000 C   0  0  0  0  0  0  0  0  0  0  0  0
    1.7321   -3.5000   -0.0000 C   0  0  0  0  0  0  0  0  0  0  0  0
   -1.0827   -1.7024   -0.0000 N   0  0  0  0  0  0  0  0  0  0  0  0
   -1.5827   -0.8364   -0.0000 C   0  0  0  0  0  0  0  0  0  0  0  0
   -1.2226    0.8578   -0.0000 C   0  0  0  0  0  0  0  0  0  0  0  0
    1.7321   -4.5000   -0.0000 O   0  0  0  0  0  0  0  0  0  0  0  0
   -2.5608   -0.6285   -0.0000 C   0  0  0  0  0  0  0  0  0  0  0  0
   -2.2007    1.0657   -0.0000 C   0  0  0  0  0  0  0  0  0  0  0  0
    2.5981   -5.0000   -0.0000 C   0  0  0  0  0  0  0  0  0  0  0  0
   -2.8698    0.3226   -0.0000 C   0  0  0  0  0  0  0  0  0  0  0  0
  1  2  2  0  0  0  0
  2  3  1  0  0  0  0
  2  4  1  0  0  0  0
  3  5  2  0  0  0  0
  3  6  1  0  0  0  0
  4  7  1  0  0  0  0
  5  8  1  0  0  0  0
  6  9  2  0  0  0  0
  7 10  1  0  0  0  0
  7 11  1  0  0  0  0
  8 12  2  0  0  0  0
 10 13  2  0  0  0  0
 11 14  2  0  0  0  0
 11 15  1  0  0  0  0
 12 16  1  0  0  0  0
 14 17  1  0  0  0  0
 15 18  2  0  0  0  0
 16 19  1  0  0  0  0
 17 20  2  0  0  0  0
  9 12  1  0  0  0  0
 13 14  1  0  0  0  0
 18 20  1  0  0  0  0
M  END
>  <S/N>
46

>  <Compound ID>
C_047

>  <PubChem CID>
3812150

>  <Isomeric SMILES>
COC1=CC=C(C=C1)C(=O)CN2C3=CC=CC=C3N=N2

>  <IC50 (�M)>
4.5

>  <pIC50>
5.35

$$$$
C_048
Actelion Java MolfileCreator 1.0

 15 16  0  0  0  0  0  0  0  0999 V2000
    4.3301   -2.0000   -0.0000 Br  0  0  0  0  0  0  0  0  0  0  0  0
    3.4641   -1.5000   -0.0000 C   0  0  0  0  0  0  0  0  0  0  0  0
    3.4641   -0.5000   -0.0000 C   0  0  0  0  0  0  0  0  0  0  0  0
    2.5981   -2.0000   -0.0000 C   0  0  0  0  0  0  0  0  0  0  0  0
    2.5981    0.0000   -0.0000 C   0  0  0  0  0  0  0  0  0  0  0  0
    1.7321   -1.5000   -0.0000 C   0  0  0  0  0  0  0  0  0  0  0  0
    1.7321   -0.5000   -0.0000 C   0  0  0  0  0  0  0  0  0  0  0  0
    2.5981    1.0000   -0.0000 C   0  0  0  0  0  0  0  0  0  0  0  0
    0.8660   -0.0000   -0.0000 O   0  0  0  0  0  0  0  0  0  0  0  0
    3.4071    1.5878   -0.0000 S   0  0  0  0  0  0  0  0  0  0  0  0
    1.7891    1.5878   -0.0000 N   0  0  0  0  0  0  0  0  0  0  0  0
    0.0000   -0.5000   -0.0000 C   0  0  0  0  0  0  0  0  0  0  0  0
    3.0981    2.5388   -0.0000 C   0  0  0  0  0  0  0  0  0  0  0  0
    2.0981    2.5388   -0.0000 N   0  0  0  0  0  0  0  0  0  0  0  0
    3.6859    3.3479   -0.0000 N   0  0  0  0  0  0  0  0  0  0  0  0
  1  2  1  0  0  0  0
  2  3  2  0  0  0  0
  2  4  1  0  0  0  0
  3  5  1  0  0  0  0
  4  6  2  0  0  0  0
  5  7  2  0  0  0  0
  5  8  1  0  0  0  0
  7  9  1  0  0  0  0
  8 10  1  0  0  0  0
  8 11  2  0  0  0  0
  9 12  1  0  0  0  0
 10 13  1  0  0  0  0
 11 14  1  0  0  0  0
 13 15  1  0  0  0  0
  6  7  1  0  0  0  0
 13 14  2  0  0  0  0
M  END
>  <S/N>
47

>  <Compound ID>
C_048

>  <PubChem CID>
3846838

>  <Isomeric SMILES>
COC1=C(C=C(C=C1)Br)C2=NN=C(S2)N

>  <IC50 (�M)>
2.3

>  <pIC50>
5.64

$$$$
C_049
Actelion Java MolfileCreator 1.0

 24 27  0  0  0  0  0  0  0  0999 V2000
    2.7026    0.9945   -0.0000 S   0  0  0  0  0  0  0  0  0  0  0  0
    2.5981   -0.0000   -0.0000 C   0  0  0  0  0  0  0  0  0  0  0  0
    3.6808    1.2024   -0.0000 C   0  0  0  0  0  0  0  0  0  0  0  0
    3.5116   -0.4067   -0.0000 N   0  0  0  0  0  0  0  0  0  0  0  0
    1.7321   -0.5000   -0.0000 N   0  0  0  0  0  0  0  0  0  0  0  0
    4.1808    0.3364   -0.0000 C   0  0  0  0  0  0  0  0  0  0  0  0
    0.8660   -0.0000   -0.0000 N   0  0  0  0  0  0  0  0  0  0  0  0
    5.1753    0.2319   -0.0000 C   0  0  0  0  0  0  0  0  0  0  0  0
    0.0000   -0.5000   -0.0000 C   0  0  0  0  0  0  0  0  0  0  0  0
    5.5820   -0.6817   -0.0000 C   0  0  0  0  0  0  0  0  0  0  0  0
    5.7631    1.0409   -0.0000 C   0  0  0  0  0  0  0  0  0  0  0  0
   -0.9135   -0.0933   -0.0000 C   0  0  0  0  0  0  0  0  0  0  0  0
   -0.1045   -1.4945   -0.0000 C   0  0  0  0  0  0  0  0  0  0  0  0
    6.5765   -0.7862   -0.0000 C   0  0  0  0  0  0  0  0  0  0  0  0
    6.7576    0.9364   -0.0000 C   0  0  0  0  0  0  0  0  0  0  0  0
   -1.1215    0.8849   -0.0000 O   0  0  0  0  0  0  0  0  0  0  0  0
   -1.5827   -0.8364   -0.0000 N   0  0  0  0  0  0  0  0  0  0  0  0
   -1.0827   -1.7024   -0.0000 C   0  0  0  0  0  0  0  0  0  0  0  0
    0.5646   -2.2377   -0.0000 C   0  0  0  0  0  0  0  0  0  0  0  0
    7.1643    0.0228   -0.0000 C   0  0  0  0  0  0  0  0  0  0  0  0
   -1.3917   -2.6535   -0.0000 C   0  0  0  0  0  0  0  0  0  0  0  0
    0.2556   -3.1887   -0.0000 C   0  0  0  0  0  0  0  0  0  0  0  0
    8.1588   -0.0817   -0.0000 C   0  0  0  0  0  0  0  0  0  0  0  0
   -0.7226   -3.3966   -0.0000 C   0  0  0  0  0  0  0  0  0  0  0  0
  1  2  1  0  0  0  0
  1  3  1  0  0  0  0
  2  4  2  0  0  0  0
  2  5  1  0  0  0  0
  3  6  2  0  0  0  0
  5  7  2  3  0  0  0
  6  8  1  0  0  0  0
  7  9  1  0  0  0  0
  8 10  2  0  0  0  0
  8 11  1  0  0  0  0
  9 12  2  0  0  0  0
  9 13  1  0  0  0  0
 10 14  1  0  0  0  0
 11 15  2  0  0  0  0
 12 16  1  0  0  0  0
 12 17  1  0  0  0  0
 13 18  2  0  0  0  0
 13 19  1  0  0  0  0
 14 20  2  0  0  0  0
 18 21  1  0  0  0  0
 19 22  2  0  0  0  0
 20 23  1  0  0  0  0
 21 24  2  0  0  0  0
  4  6  1  0  0  0  0
 15 20  1  0  0  0  0
 17 18  1  0  0  0  0
 22 24  1  0  0  0  0
M  END
>  <S/N>
48

>  <Compound ID>
C_049

>  <PubChem CID>
4284022

>  <Isomeric SMILES>
CC1=CC=C(C=C1)C2=CSC(=N2)N=NC3=C(NC4=CC=CC=C43)O

>  <IC50 (�M)>
5.3

>  <pIC50>
5.28

$$$$
C_050
Actelion Java MolfileCreator 1.0

 15 16  0  0  0  0  0  0  0  0999 V2000
    3.4071    1.5878   -0.0000 S   0  0  0  0  0  0  0  0  0  0  0  0
    3.0981    2.5388   -0.0000 C   0  0  0  0  0  0  0  0  0  0  0  0
    2.5981    1.0000   -0.0000 C   0  0  0  0  0  0  0  0  0  0  0  0
    2.0981    2.5388   -0.0000 N   0  0  0  0  0  0  0  0  0  0  0  0
    3.6859    3.3479   -0.0000 N   0  0  0  0  0  0  0  0  0  0  0  0
    1.7891    1.5878   -0.0000 N   0  0  0  0  0  0  0  0  0  0  0  0
    2.5981    0.0000   -0.0000 C   0  0  0  0  0  0  0  0  0  0  0  0
    1.7321   -0.5000   -0.0000 C   0  0  0  0  0  0  0  0  0  0  0  0
    3.4641   -0.5000   -0.0000 C   0  0  0  0  0  0  0  0  0  0  0  0
    0.8660   -0.0000   -0.0000 N   0  0  0  0  0  0  0  0  0  0  0  0
    1.7321   -1.5000   -0.0000 C   0  0  0  0  0  0  0  0  0  0  0  0
    3.4641   -1.5000   -0.0000 C   0  0  0  0  0  0  0  0  0  0  0  0
    0.8660    1.0000   -0.0000 O   0  0  0  0  0  0  0  0  0  0  0  0
    0.0000   -0.5000   -0.0000 O   0  0  0  0  0  0  0  0  0  0  0  0
    2.5981   -2.0000   -0.0000 C   0  0  0  0  0  0  0  0  0  0  0  0
  1  2  1  0  0  0  0
  1  3  1  0  0  0  0
  2  4  2  0  0  0  0
  2  5  1  0  0  0  0
  3  6  2  0  0  0  0
  3  7  1  0  0  0  0
  7  8  2  0  0  0  0
  7  9  1  0  0  0  0
  8 10  1  0  0  0  0
  8 11  1  0  0  0  0
  9 12  2  0  0  0  0
 10 13  2  0  0  0  0
 10 14  1  0  0  0  0
 11 15  2  0  0  0  0
  4  6  1  0  0  0  0
 12 15  1  0  0  0  0
M  CHG  2  10   1  14  -1
M  END
>  <S/N>
49

>  <Compound ID>
C_050

>  <PubChem CID>
4351712

>  <Isomeric SMILES>
C1=CC=C(C(=C1)C2=NN=C(S2)N)[N+](=O)[O-]

>  <IC50 (�M)>
2.3

>  <pIC50>
5.64

$$$$
C_051
Actelion Java MolfileCreator 1.0

 16 17  0  0  0  0  0  0  0  0999 V2000
    3.4071    1.5878   -0.0000 S   0  0  0  0  0  0  0  0  0  0  0  0
    3.0981    2.5388   -0.0000 C   0  0  0  0  0  0  0  0  0  0  0  0
    2.5981    1.0000   -0.0000 C   0  0  0  0  0  0  0  0  0  0  0  0
    2.0981    2.5388   -0.0000 N   0  0  0  0  0  0  0  0  0  0  0  0
    3.6859    3.3479   -0.0000 N   0  0  0  0  0  0  0  0  0  0  0  0
    1.7891    1.5878   -0.0000 N   0  0  0  0  0  0  0  0  0  0  0  0
    2.5981    0.0000   -0.0000 C   0  0  0  0  0  0  0  0  0  0  0  0
    1.7321   -0.5000   -0.0000 C   0  0  0  0  0  0  0  0  0  0  0  0
    3.4641   -0.5000   -0.0000 C   0  0  0  0  0  0  0  0  0  0  0  0
    0.8660   -0.0000   -0.0000 O   0  0  0  0  0  0  0  0  0  0  0  0
    1.7321   -1.5000   -0.0000 C   0  0  0  0  0  0  0  0  0  0  0  0
    3.4641   -1.5000   -0.0000 C   0  0  0  0  0  0  0  0  0  0  0  0
    0.0000   -0.5000   -0.0000 C   0  0  0  0  0  0  0  0  0  0  0  0
    0.8660   -2.0000   -0.0000 O   0  0  0  0  0  0  0  0  0  0  0  0
    2.5981   -2.0000   -0.0000 C   0  0  0  0  0  0  0  0  0  0  0  0
    0.8660   -3.0000   -0.0000 C   0  0  0  0  0  0  0  0  0  0  0  0
  1  2  1  0  0  0  0
  1  3  1  0  0  0  0
  2  4  2  0  0  0  0
  2  5  1  0  0  0  0
  3  6  2  0  0  0  0
  3  7  1  0  0  0  0
  7  8  2  0  0  0  0
  7  9  1  0  0  0  0
  8 10  1  0  0  0  0
  8 11  1  0  0  0  0
  9 12  2  0  0  0  0
 10 13  1  0  0  0  0
 11 14  1  0  0  0  0
 11 15  2  0  0  0  0
 14 16  1  0  0  0  0
  4  6  1  0  0  0  0
 12 15  1  0  0  0  0
M  END
>  <S/N>
50

>  <Compound ID>
C_051

>  <PubChem CID>
4366058

>  <Isomeric SMILES>
COC1=CC=CC(=C1OC)C2=NN=C(S2)N

>  <IC50 (�M)>
2.3

>  <pIC50>
5.64

$$$$
C_052
Actelion Java MolfileCreator 1.0

 25 26  0  0  0  0  0  0  0  0999 V2000
   14.2894    1.5000   -0.0000 O   0  0  0  0  0  0  0  0  0  0  0  0
   14.2894   -0.0000   -0.0000 C   0  0  0  0  0  0  0  0  0  0  0  0
   15.5885   -0.7500   -0.0000 N   0  0  0  0  0  0  0  0  0  0  0  0
   12.9904   -0.7500   -0.0000 C   0  0  0  0  0  0  0  0  0  0  0  0
   16.8875   -0.0000   -0.0000 N   0  0  0  0  0  0  0  0  0  0  0  0
   11.6913   -0.0000   -0.0000 C   0  0  0  0  0  0  0  0  0  0  0  0
   18.1865   -0.7500   -0.0000 C   0  0  0  0  0  0  0  0  0  0  0  0
   10.3923   -0.7500   -0.0000 C   0  0  0  0  0  0  0  0  0  0  0  0
   18.3433   -2.2418   -0.0000 C   0  0  0  0  0  0  0  0  0  0  0  0
   19.5569   -0.1399   -0.0000 C   0  0  0  0  0  0  0  0  0  0  0  0
    9.0933   -0.0000   -0.0000 C   0  0  0  0  0  0  0  0  0  0  0  0
   17.2286   -3.2455   -0.0000 O   0  0  0  0  0  0  0  0  0  0  0  0
   19.8105   -2.5537   -0.0000 N   0  0  0  0  0  0  0  0  0  0  0  0
   20.5605   -1.2546   -0.0000 C   0  0  0  0  0  0  0  0  0  0  0  0
   20.0204    1.2867   -0.0000 C   0  0  0  0  0  0  0  0  0  0  0  0
    7.7942   -0.7500   -0.0000 C   0  0  0  0  0  0  0  0  0  0  0  0
   22.0278   -0.9427   -0.0000 C   0  0  0  0  0  0  0  0  0  0  0  0
   21.4876    1.5986   -0.0000 C   0  0  0  0  0  0  0  0  0  0  0  0
    6.4952   -0.0000   -0.0000 C   0  0  0  0  0  0  0  0  0  0  0  0
   22.4913    0.4838   -0.0000 C   0  0  0  0  0  0  0  0  0  0  0  0
    5.1962   -0.7500   -0.0000 C   0  0  0  0  0  0  0  0  0  0  0  0
    3.8971   -0.0000   -0.0000 C   0  0  0  0  0  0  0  0  0  0  0  0
    2.5981   -0.7500   -0.0000 C   0  0  0  0  0  0  0  0  0  0  0  0
    1.2990   -0.0000   -0.0000 C   0  0  0  0  0  0  0  0  0  0  0  0
    0.0000   -0.7500   -0.0000 C   0  0  0  0  0  0  0  0  0  0  0  0
  1  2  2  0  0  0  0
  2  3  1  0  0  0  0
  2  4  1  0  0  0  0
  3  5  2  3  0  0  0
  4  6  1  0  0  0  0
  5  7  1  0  0  0  0
  6  8  1  0  0  0  0
  7  9  2  0  0  0  0
  7 10  1  0  0  0  0
  8 11  1  0  0  0  0
  9 12  1  0  0  0  0
  9 13  1  0  0  0  0
 10 14  2  0  0  0  0
 10 15  1  0  0  0  0
 11 16  1  0  0  0  0
 14 17  1  0  0  0  0
 15 18  2  0  0  0  0
 16 19  1  0  0  0  0
 17 20  2  0  0  0  0
 19 21  1  0  0  0  0
 21 22  1  0  0  0  0
 22 23  1  0  0  0  0
 23 24  1  0  0  0  0
 24 25  1  0  0  0  0
 13 14  1  0  0  0  0
 18 20  1  0  0  0  0
M  END
>  <S/N>
51

>  <Compound ID>
C_052

>  <PubChem CID>
4596212

>  <Isomeric SMILES>
CCCCCCCCCCCC(=O)N=NC1=C(NC2=CC=CC=C21)O

>  <IC50 (�M)>
2.2

>  <pIC50>
5.66

$$$$
C_053
Actelion Java MolfileCreator 1.0

 22 24  0  0  0  0  0  0  0  0999 V2000
    7.7942    1.0000   -0.0000 O   0  0  0  0  0  0  0  0  0  0  0  0
    6.9282    1.5000   -0.0000 C   0  0  0  0  0  0  0  0  0  0  0  0
    6.9282    2.5000   -0.0000 N   0  0  0  0  0  0  0  0  0  0  0  0
    6.0622    1.0000   -0.0000 C   0  0  0  0  0  0  0  0  0  0  0  0
    7.7372    3.0878   -0.0000 N   0  0  0  0  0  0  0  0  0  0  0  0
    6.1192    3.0878   -0.0000 C   0  0  0  0  0  0  0  0  0  0  0  0
    5.1962    1.5000   -0.0000 C   0  0  0  0  0  0  0  0  0  0  0  0
    6.0622   -0.0000   -0.0000 C   0  0  0  0  0  0  0  0  0  0  0  0
    7.4282    4.0388   -0.0000 N   0  0  0  0  0  0  0  0  0  0  0  0
    6.4282    4.0388   -0.0000 C   0  0  0  0  0  0  0  0  0  0  0  0
    5.1410    2.8799   -0.0000 C   0  0  0  0  0  0  0  0  0  0  0  0
    4.3301    1.0000   -0.0000 C   0  0  0  0  0  0  0  0  0  0  0  0
    5.1962   -0.5000   -0.0000 C   0  0  0  0  0  0  0  0  0  0  0  0
    5.7591    4.7820   -0.0000 C   0  0  0  0  0  0  0  0  0  0  0  0
    4.4719    3.6230   -0.0000 C   0  0  0  0  0  0  0  0  0  0  0  0
    4.3301   -0.0000   -0.0000 C   0  0  0  0  0  0  0  0  0  0  0  0
    4.7809    4.5741   -0.0000 C   0  0  0  0  0  0  0  0  0  0  0  0
    3.4641   -0.5000   -0.0000 O   0  0  0  0  0  0  0  0  0  0  0  0
    2.5981   -0.0000   -0.0000 C   0  0  0  0  0  0  0  0  0  0  0  0
    1.7321   -0.5000   -0.0000 C   0  0  0  0  0  0  0  0  0  0  0  0
    0.8660   -0.0000   -0.0000 C   0  0  0  0  0  0  0  0  0  0  0  0
    0.0000   -0.5000   -0.0000 C   0  0  0  0  0  0  0  0  0  0  0  0
  1  2  2  0  0  0  0
  2  3  1  0  0  0  0
  2  4  1  0  0  0  0
  3  5  1  0  0  0  0
  3  6  1  0  0  0  0
  4  7  2  0  0  0  0
  4  8  1  0  0  0  0
  5  9  2  0  0  0  0
  6 10  2  0  0  0  0
  6 11  1  0  0  0  0
  7 12  1  0  0  0  0
  8 13  2  0  0  0  0
 10 14  1  0  0  0  0
 11 15  2  0  0  0  0
 12 16  2  0  0  0  0
 14 17  2  0  0  0  0
 16 18  1  0  0  0  0
 18 19  1  0  0  0  0
 19 20  1  0  0  0  0
 20 21  1  0  0  0  0
 21 22  1  0  0  0  0
  9 10  1  0  0  0  0
 13 16  1  0  0  0  0
 15 17  1  0  0  0  0
M  END
>  <S/N>
52

>  <Compound ID>
C_053

>  <PubChem CID>
4936110

>  <Isomeric SMILES>
CCCCOC1=CC=C(C=C1)C(=O)N2C3=CC=CC=C3N=N2

>  <IC50 (�M)>
5.6

>  <pIC50>
5.25

$$$$
C_054
Actelion Java MolfileCreator 1.0

 22 24  0  0  0  0  0  0  0  0999 V2000
    8.9607    3.0251   -0.0000 Cl  0  0  0  0  0  0  0  0  0  0  0  0
    8.4972    1.5986   -0.0000 C   0  0  0  0  0  0  0  0  0  0  0  0
    7.0300    1.2867   -0.0000 C   0  0  0  0  0  0  0  0  0  0  0  0
    9.5009    0.4838   -0.0000 C   0  0  0  0  0  0  0  0  0  0  0  0
    6.5665   -0.1399   -0.0000 C   0  0  0  0  0  0  0  0  0  0  0  0
    9.0374   -0.9427   -0.0000 C   0  0  0  0  0  0  0  0  0  0  0  0
    5.1962   -0.7500   -0.0000 C   0  0  0  0  0  0  0  0  0  0  0  0
    7.5702   -1.2546   -0.0000 C   0  0  0  0  0  0  0  0  0  0  0  0
    3.8971   -0.0000   -0.0000 N   0  0  0  0  0  0  0  0  0  0  0  0
    5.3529   -2.2418   -0.0000 C   0  0  0  0  0  0  0  0  0  0  0  0
    6.8202   -2.5537   -0.0000 N   0  0  0  0  0  0  0  0  0  0  0  0
    2.5981   -0.7500   -0.0000 N   0  0  0  0  0  0  0  0  0  0  0  0
    4.2382   -3.2455   -0.0000 O   0  0  0  0  0  0  0  0  0  0  0  0
    1.2990   -0.0000   -0.0000 C   0  0  0  0  0  0  0  0  0  0  0  0
    1.2990    1.5000   -0.0000 O   0  0  0  0  0  0  0  0  0  0  0  0
    0.0000   -0.7500   -0.0000 C   0  0  0  0  0  0  0  0  0  0  0  0
   -1.2990    0.0000   -0.0000 C   0  0  0  0  0  0  0  0  0  0  0  0
   -0.0000   -2.2500   -0.0000 C   0  0  0  0  0  0  0  0  0  0  0  0
   -2.5981   -0.7500   -0.0000 C   0  0  0  0  0  0  0  0  0  0  0  0
   -1.2990   -3.0000   -0.0000 C   0  0  0  0  0  0  0  0  0  0  0  0
   -2.5981   -2.2500   -0.0000 C   0  0  0  0  0  0  0  0  0  0  0  0
   -3.8971   -3.0000   -0.0000 C   0  0  0  0  0  0  0  0  0  0  0  0
  1  2  1  0  0  0  0
  2  3  2  0  0  0  0
  2  4  1  0  0  0  0
  3  5  1  0  0  0  0
  4  6  2  0  0  0  0
  5  7  1  0  0  0  0
  5  8  2  0  0  0  0
  7  9  1  0  0  0  0
  7 10  2  0  0  0  0
  8 11  1  0  0  0  0
  9 12  2  3  0  0  0
 10 13  1  0  0  0  0
 12 14  1  0  0  0  0
 14 15  2  0  0  0  0
 14 16  1  0  0  0  0
 16 17  2  0  0  0  0
 16 18  1  0  0  0  0
 17 19  1  0  0  0  0
 18 20  2  0  0  0  0
 19 21  2  0  0  0  0
 21 22  1  0  0  0  0
  6  8  1  0  0  0  0
 10 11  1  0  0  0  0
 20 21  1  0  0  0  0
M  END
>  <S/N>
53

>  <Compound ID>
C_054

>  <PubChem CID>
5158729

>  <Isomeric SMILES>
CC1=CC=C(C=C1)C(=O)N=NC2=C(NC3=C2C=C(C=C3)Cl)O

>  <IC50 (�M)>
2.2

>  <pIC50>
5.66

$$$$
C_055
Actelion Java MolfileCreator 1.0

 22 24  0  0  0  0  0  0  0  0999 V2000
    0.8660   -0.0000   -0.0000 O   0  0  0  0  0  0  0  0  0  0  0  0
    0.0000   -0.5000   -0.0000 C   0  0  0  0  0  0  0  0  0  0  0  0
   -0.8660    0.0000   -0.0000 C   0  0  0  0  0  0  0  0  0  0  0  0
   -0.0000   -1.5000   -0.0000 C   0  0  0  0  0  0  0  0  0  0  0  0
   -0.8660    1.0000   -0.0000 O   0  0  0  0  0  0  0  0  0  0  0  0
   -1.7321   -0.5000   -0.0000 C   0  0  0  0  0  0  0  0  0  0  0  0
   -0.8660   -2.0000   -0.0000 C   0  0  0  0  0  0  0  0  0  0  0  0
    0.8660   -2.0000   -0.0000 C   0  0  0  0  0  0  0  0  0  0  0  0
   -1.7321   -1.5000   -0.0000 O   0  0  0  0  0  0  0  0  0  0  0  0
   -2.5981    0.0000   -0.0000 C   0  0  0  0  0  0  0  0  0  0  0  0
   -0.8660   -3.0000   -0.0000 C   0  0  0  0  0  0  0  0  0  0  0  0
    1.7321   -1.5000   -0.0000 O   0  0  0  0  0  0  0  0  0  0  0  0
    0.8660   -3.0000   -0.0000 C   0  0  0  0  0  0  0  0  0  0  0  0
   -2.5981    1.0000   -0.0000 C   0  0  0  0  0  0  0  0  0  0  0  0
   -3.4641   -0.5000   -0.0000 C   0  0  0  0  0  0  0  0  0  0  0  0
   -0.0000   -3.5000   -0.0000 C   0  0  0  0  0  0  0  0  0  0  0  0
   -3.4641    1.5000   -0.0000 C   0  0  0  0  0  0  0  0  0  0  0  0
   -4.3301    0.0000   -0.0000 C   0  0  0  0  0  0  0  0  0  0  0  0
   -0.0000   -4.5000   -0.0000 O   0  0  0  0  0  0  0  0  0  0  0  0
   -3.4641    2.5000   -0.0000 O   0  0  0  0  0  0  0  0  0  0  0  0
   -4.3301    1.0000   -0.0000 C   0  0  0  0  0  0  0  0  0  0  0  0
   -5.1962    1.5000   -0.0000 O   0  0  0  0  0  0  0  0  0  0  0  0
  1  2  2  0  0  0  0
  2  3  1  0  0  0  0
  2  4  1  0  0  0  0
  3  5  1  0  0  0  0
  3  6  2  0  0  0  0
  4  7  2  0  0  0  0
  4  8  1  0  0  0  0
  6  9  1  0  0  0  0
  6 10  1  0  0  0  0
  7 11  1  0  0  0  0
  8 12  1  0  0  0  0
  8 13  2  0  0  0  0
 10 14  2  0  0  0  0
 10 15  1  0  0  0  0
 11 16  2  0  0  0  0
 14 17  1  0  0  0  0
 15 18  2  0  0  0  0
 16 19  1  0  0  0  0
 17 20  1  0  0  0  0
 17 21  2  0  0  0  0
 21 22  1  0  0  0  0
  7  9  1  0  0  0  0
 13 16  1  0  0  0  0
 18 21  1  0  0  0  0
M  END
>  <S/N>
54

>  <Compound ID>
C_055

>  <PubChem CID>
5280343

>  <Isomeric SMILES>
C1=CC(=C(C=C1C2=C(C(=O)C3=C(C=C(C=C3O2)O)O)O)O)O

>  <IC50 (�M)>
7.8

>  <pIC50>
5.11

$$$$
C_056
Actelion Java MolfileCreator 1.0

 20 22  0  0  0  0  0  0  0  0999 V2000
    0.8660   -0.0000   -0.0000 O   0  0  0  0  0  0  0  0  0  0  0  0
    0.0000   -0.5000   -0.0000 C   0  0  0  0  0  0  0  0  0  0  0  0
   -0.8660    0.0000   -0.0000 C   0  0  0  0  0  0  0  0  0  0  0  0
   -0.0000   -1.5000   -0.0000 C   0  0  0  0  0  0  0  0  0  0  0  0
   -1.7321   -0.5000   -0.0000 C   0  0  0  0  0  0  0  0  0  0  0  0
   -0.8660    1.0000   -0.0000 C   0  0  0  0  0  0  0  0  0  0  0  0
    0.8660   -2.0000   -0.0000 C   0  0  0  0  0  0  0  0  0  0  0  0
   -0.8660   -2.0000   -0.0000 C   0  0  0  0  0  0  0  0  0  0  0  0
   -1.7321   -1.5000   -0.0000 O   0  0  0  0  0  0  0  0  0  0  0  0
   -2.5981    0.0000   -0.0000 C   0  0  0  0  0  0  0  0  0  0  0  0
    0.0000    1.5000   -0.0000 O   0  0  0  0  0  0  0  0  0  0  0  0
   -1.7321    1.5000   -0.0000 C   0  0  0  0  0  0  0  0  0  0  0  0
    0.8660   -3.0000   -0.0000 C   0  0  0  0  0  0  0  0  0  0  0  0
    1.7321   -1.5000   -0.0000 C   0  0  0  0  0  0  0  0  0  0  0  0
   -2.5981    1.0000   -0.0000 C   0  0  0  0  0  0  0  0  0  0  0  0
    1.7321   -3.5000   -0.0000 C   0  0  0  0  0  0  0  0  0  0  0  0
    2.5981   -2.0000   -0.0000 C   0  0  0  0  0  0  0  0  0  0  0  0
   -3.4641    1.5000   -0.0000 O   0  0  0  0  0  0  0  0  0  0  0  0
    2.5981   -3.0000   -0.0000 C   0  0  0  0  0  0  0  0  0  0  0  0
    3.4641   -3.5000   -0.0000 O   0  0  0  0  0  0  0  0  0  0  0  0
  1  2  2  0  0  0  0
  2  3  1  0  0  0  0
  2  4  1  0  0  0  0
  3  5  2  0  0  0  0
  3  6  1  0  0  0  0
  4  7  1  0  0  0  0
  4  8  2  0  0  0  0
  5  9  1  0  0  0  0
  5 10  1  0  0  0  0
  6 11  1  0  0  0  0
  6 12  2  0  0  0  0
  7 13  2  0  0  0  0
  7 14  1  0  0  0  0
 10 15  2  0  0  0  0
 13 16  1  0  0  0  0
 14 17  2  0  0  0  0
 15 18  1  0  0  0  0
 16 19  2  0  0  0  0
 19 20  1  0  0  0  0
  8  9  1  0  0  0  0
 12 15  1  0  0  0  0
 17 19  1  0  0  0  0
M  END
>  <S/N>
55

>  <Compound ID>
C_056

>  <PubChem CID>
5280961

>  <Isomeric SMILES>
C1=CC(=CC=C1C2=COC3=CC(=CC(=C3C2=O)O)O)O

>  <IC50 (�M)>
2.61

>  <pIC50>
5.58

$$$$
C_057
Actelion Java MolfileCreator 1.0

 30 32  0  0  0  0  0  0  0  0999 V2000
    1.7321   -1.5000   -0.0000 O   0  0  0  0  0  0  0  0  0  0  0  0
    2.5981   -2.0000   -0.0000 C   0  0  0  0  0  0  0  0  0  0  0  0
    2.5981   -3.0000   -0.0000 C   0  0  0  0  0  0  0  0  0  0  0  0
    3.4641   -1.5000   -0.0000 C   0  0  0  0  0  0  0  0  0  0  0  0
    1.7321   -3.5000   -0.0000 C   0  0  0  0  0  0  0  0  0  0  0  0
    3.4641   -3.5000   -0.0000 C   0  0  0  0  0  0  0  0  0  0  0  0
    4.3301   -2.0000   -0.0000 C   0  0  0  0  0  0  0  0  0  0  0  0
    3.4641   -0.5000   -0.0000 C   0  0  0  0  0  0  0  0  0  0  0  0
    0.8660   -3.0000   -0.0000 O   0  0  0  0  0  0  0  0  0  0  0  0
    1.7321   -4.5000   -0.0000 C   0  0  0  0  0  0  0  0  0  0  0  0
    4.3301   -3.0000   -0.0000 O   0  0  0  0  0  0  0  0  0  0  0  0
    3.4641   -4.5000   -0.0000 C   0  0  0  0  0  0  0  0  0  0  0  0
    5.1962   -1.5000   -0.0000 C   0  0  0  0  0  0  0  0  0  0  0  0
    4.3301    0.0000   -0.0000 C   0  0  0  0  0  0  0  0  0  0  0  0
    2.5981   -0.0000   -0.0000 C   0  0  0  0  0  0  0  0  0  0  0  0
    2.5981   -5.0000   -0.0000 C   0  0  0  0  0  0  0  0  0  0  0  0
    0.8660   -5.0000   -0.0000 C   0  0  0  0  0  0  0  0  0  0  0  0
    5.1962   -0.5000   -0.0000 C   0  0  0  0  0  0  0  0  0  0  0  0
    4.3301    1.0000   -0.0000 O   0  0  0  0  0  0  0  0  0  0  0  0
    1.7321   -0.5000   -0.0000 C   0  0  0  0  0  0  0  0  0  0  0  0
    2.5981   -6.0000   -0.0000 O   0  0  0  0  0  0  0  0  0  0  0  0
    0.8660   -6.0000   -0.0000 C   0  0  0  0  0  0  0  0  0  0  0  0
    6.0622    0.0000   -0.0000 O   0  0  0  0  0  0  0  0  0  0  0  0
    3.4641    1.5000   -0.0000 C   0  0  0  0  0  0  0  0  0  0  0  0
    0.8660   -0.0000   -0.0000 C   0  0  0  0  0  0  0  0  0  0  0  0
    0.0000   -6.5000   -0.0000 C   0  0  0  0  0  0  0  0  0  0  0  0
    0.8660    1.0000   -0.0000 C   0  0  0  0  0  0  0  0  0  0  0  0
    0.0000   -0.5000   -0.0000 C   0  0  0  0  0  0  0  0  0  0  0  0
   -0.8660   -6.0000   -0.0000 C   0  0  0  0  0  0  0  0  0  0  0  0
    0.0000   -7.5000   -0.0000 C   0  0  0  0  0  0  0  0  0  0  0  0
  1  2  2  0  0  0  0
  2  3  1  0  0  0  0
  2  4  1  0  0  0  0
  3  5  2  0  0  0  0
  3  6  1  0  0  0  0
  4  7  2  0  0  0  0
  4  8  1  0  0  0  0
  5  9  1  0  0  0  0
  5 10  1  0  0  0  0
  6 11  1  0  0  0  0
  6 12  2  0  0  0  0
  7 13  1  0  0  0  0
  8 14  2  0  0  0  0
  8 15  1  0  0  0  0
 10 16  2  0  0  0  0
 10 17  1  0  0  0  0
 13 18  2  0  0  0  0
 14 19  1  0  0  0  0
 15 20  1  0  0  0  0
 16 21  1  0  0  0  0
 17 22  1  0  0  0  0
 18 23  1  0  0  0  0
 19 24  1  0  0  0  0
 20 25  2  0  0  0  0
 22 26  2  0  0  0  0
 25 27  1  0  0  0  0
 25 28  1  0  0  0  0
 26 29  1  0  0  0  0
 26 30  1  0  0  0  0
  7 11  1  0  0  0  0
 12 16  1  0  0  0  0
 14 18  1  0  0  0  0
M  END
>  <S/N>
56

>  <Compound ID>
C_057

>  <PubChem CID>
5281650

>  <Isomeric SMILES>
CC(=CCC1=C(C2=C(C=C1O)OC3=C(C2=O)C(=C(C(=C3)O)OC)CC=C(C)C)O)C

>  <IC50 (�M)>
5.7

>  <pIC50>
5.24

$$$$
C_058
Actelion Java MolfileCreator 1.0

 28 30  0  0  0  0  0  0  0  0999 V2000
   10.3923   -1.5000   -0.0000 O   0  0  0  0  0  0  0  0  0  0  0  0
   10.3923   -0.5000   -0.0000 C   0  0  0  0  0  0  0  0  0  0  0  0
   11.2583    0.0000   -0.0000 C   0  0  0  0  0  0  0  0  0  0  0  0
    9.5263    0.0000   -0.0000 C   0  0  0  0  0  0  0  0  0  0  0  0
   11.2583    1.0000   -0.0000 C   0  0  0  0  0  0  0  0  0  0  0  0
   12.1244   -0.5000   -0.0000 C   0  0  0  0  0  0  0  0  0  0  0  0
    9.5263    1.0000   -0.0000 C   0  0  0  0  0  0  0  0  0  0  0  0
    8.6603   -0.5000   -0.0000 C   0  0  0  0  0  0  0  0  0  0  0  0
   10.3923    1.5000   -0.0000 O   0  0  0  0  0  0  0  0  0  0  0  0
   12.1244    1.5000   -0.0000 C   0  0  0  0  0  0  0  0  0  0  0  0
   12.1244   -1.5000   -0.0000 O   0  0  0  0  0  0  0  0  0  0  0  0
   12.9904   -0.0000   -0.0000 C   0  0  0  0  0  0  0  0  0  0  0  0
    8.6603    1.5000   -0.0000 C   0  0  0  0  0  0  0  0  0  0  0  0
    7.7942   -0.0000   -0.0000 C   0  0  0  0  0  0  0  0  0  0  0  0
   12.9904    1.0000   -0.0000 C   0  0  0  0  0  0  0  0  0  0  0  0
    7.7942    1.0000   -0.0000 C   0  0  0  0  0  0  0  0  0  0  0  0
    6.9282   -0.5000   -0.0000 O   0  0  0  0  0  0  0  0  0  0  0  0
   13.8564    1.5000   -0.0000 O   0  0  0  0  0  0  0  0  0  0  0  0
    6.0622   -0.0000   -0.0000 C   0  0  0  0  0  0  0  0  0  0  0  0
    5.1962   -0.5000   -0.0000 C   0  0  0  0  0  0  0  0  0  0  0  0
    4.3301   -0.0000   -0.0000 C   0  0  0  0  0  0  0  0  0  0  0  0
    3.4641   -0.5000   -0.0000 C   0  0  0  0  0  0  0  0  0  0  0  0
    4.3301    1.0000   -0.0000 C   0  0  0  0  0  0  0  0  0  0  0  0
    2.5981   -0.0000   -0.0000 C   0  0  0  0  0  0  0  0  0  0  0  0
    1.7321   -0.5000   -0.0000 C   0  0  0  0  0  0  0  0  0  0  0  0
    0.8660   -0.0000   -0.0000 C   0  0  0  0  0  0  0  0  0  0  0  0
    0.8660    1.0000   -0.0000 C   0  0  0  0  0  0  0  0  0  0  0  0
    0.0000   -0.5000   -0.0000 C   0  0  0  0  0  0  0  0  0  0  0  0
  1  2  2  0  0  0  0
  2  3  1  0  0  0  0
  2  4  1  0  0  0  0
  3  5  2  0  0  0  0
  3  6  1  0  0  0  0
  4  7  2  0  0  0  0
  4  8  1  0  0  0  0
  5  9  1  0  0  0  0
  5 10  1  0  0  0  0
  6 11  1  0  0  0  0
  6 12  2  0  0  0  0
  7 13  1  0  0  0  0
  8 14  2  0  0  0  0
 10 15  2  0  0  0  0
 13 16  2  0  0  0  0
 14 17  1  0  0  0  0
 15 18  1  0  0  0  0
 17 19  1  0  0  0  0
 19 20  1  0  0  0  0
 20 21  2  0  0  0  0
 21 22  1  0  0  0  0
 21 23  1  0  0  0  0
 22 24  1  0  0  0  0
 24 25  1  0  0  0  0
 25 26  2  0  0  0  0
 26 27  1  0  0  0  0
 26 28  1  0  0  0  0
  7  9  1  0  0  0  0
 12 15  1  0  0  0  0
 14 16  1  0  0  0  0
M  END
>  <S/N>
57

>  <Compound ID>
C_058

>  <PubChem CID>
5317563

>  <Isomeric SMILES>
CC(=CCC/C(=C/COC1=CC2=C(C=C1)OC3=CC(=CC(=C3C2=O)O)O)/C)C

>  <IC50 (�M)>
20.6

>  <pIC50>
4.69

$$$$
C_059
Actelion Java MolfileCreator 1.0

 14 15  0  0  0  0  0  0  0  0999 V2000
    1.2990   -0.0000   -0.0000 O   0  0  0  0  0  0  0  0  0  0  0  0
    0.0000   -0.7500   -0.0000 C   0  0  0  0  0  0  0  0  0  0  0  0
   -1.2990    0.0000   -0.0000 O   0  0  0  0  0  0  0  0  0  0  0  0
   -0.0000   -2.2500   -0.0000 C   0  0  0  0  0  0  0  0  0  0  0  0
   -2.5981   -0.7500   -0.0000 C   0  0  0  0  0  0  0  0  0  0  0  0
   -1.2990   -3.0000   -0.0000 C   0  0  0  0  0  0  0  0  0  0  0  0
   -3.8971    0.0000   -0.0000 C   0  0  0  0  0  0  0  0  0  0  0  0
   -2.5981   -2.2500   -0.0000 C   0  0  0  0  0  0  0  0  0  0  0  0
   -1.2990   -4.5000   -0.0000 C   0  0  0  0  0  0  0  0  0  0  0  0
   -3.8971    1.5000   -0.0000 O   0  0  0  0  0  0  0  0  0  0  0  0
   -5.1962   -0.7500   -0.0000 C   0  0  0  0  0  0  0  0  0  0  0  0
   -3.8971   -3.0000   -0.0000 C   0  0  0  0  0  0  0  0  0  0  0  0
   -6.4952    0.0000   -0.0000 O   0  0  0  0  0  0  0  0  0  0  0  0
   -5.1962   -2.2500   -0.0000 C   0  0  0  0  0  0  0  0  0  0  0  0
  1  2  2  0  0  0  0
  2  3  1  0  0  0  0
  2  4  1  0  0  0  0
  3  5  1  0  0  0  0
  4  6  2  0  0  0  0
  5  7  2  0  0  0  0
  5  8  1  0  0  0  0
  6  9  1  0  0  0  0
  7 10  1  0  0  0  0
  7 11  1  0  0  0  0
  8 12  2  0  0  0  0
 11 13  1  0  0  0  0
 11 14  2  0  0  0  0
  6  8  1  0  0  0  0
 12 14  1  0  0  0  0
M  END
>  <S/N>
58

>  <Compound ID>
C_059

>  <PubChem CID>
5355836

>  <Isomeric SMILES>
CC1=CC(=O)OC2=C1C=CC(=C2O)O

>  <IC50 (�M)>
52

>  <pIC50>
4.28

$$$$
C_060
Actelion Java MolfileCreator 1.0

 29 31  0  0  0  0  0  0  0  0999 V2000
    1.7321   -1.5000   -0.0000 O   0  0  0  0  0  0  0  0  0  0  0  0
    2.5981   -2.0000   -0.0000 C   0  0  0  0  0  0  0  0  0  0  0  0
    2.5981   -3.0000   -0.0000 C   0  0  0  0  0  0  0  0  0  0  0  0
    3.4641   -1.5000   -0.0000 C   0  0  0  0  0  0  0  0  0  0  0  0
    1.7321   -3.5000   -0.0000 C   0  0  0  0  0  0  0  0  0  0  0  0
    3.4641   -3.5000   -0.0000 C   0  0  0  0  0  0  0  0  0  0  0  0
    4.3301   -2.0000   -0.0000 C   0  0  0  0  0  0  0  0  0  0  0  0
    3.4641   -0.5000   -0.0000 C   0  0  0  0  0  0  0  0  0  0  0  0
    0.8660   -3.0000   -0.0000 O   0  0  0  0  0  0  0  0  0  0  0  0
    1.7321   -4.5000   -0.0000 C   0  0  0  0  0  0  0  0  0  0  0  0
    4.3301   -3.0000   -0.0000 O   0  0  0  0  0  0  0  0  0  0  0  0
    3.4641   -4.5000   -0.0000 C   0  0  0  0  0  0  0  0  0  0  0  0
    5.1962   -1.5000   -0.0000 C   0  0  0  0  0  0  0  0  0  0  0  0
    4.3301    0.0000   -0.0000 C   0  0  0  0  0  0  0  0  0  0  0  0
    2.5981   -0.0000   -0.0000 C   0  0  0  0  0  0  0  0  0  0  0  0
    2.5981   -5.0000   -0.0000 C   0  0  0  0  0  0  0  0  0  0  0  0
    0.8660   -5.0000   -0.0000 C   0  0  0  0  0  0  0  0  0  0  0  0
    5.1962   -0.5000   -0.0000 C   0  0  0  0  0  0  0  0  0  0  0  0
    4.3301    1.0000   -0.0000 O   0  0  0  0  0  0  0  0  0  0  0  0
    1.7321   -0.5000   -0.0000 C   0  0  0  0  0  0  0  0  0  0  0  0
    2.5981   -6.0000   -0.0000 O   0  0  0  0  0  0  0  0  0  0  0  0
    0.8660   -6.0000   -0.0000 C   0  0  0  0  0  0  0  0  0  0  0  0
    6.0622    0.0000   -0.0000 O   0  0  0  0  0  0  0  0  0  0  0  0
    0.8660   -0.0000   -0.0000 C   0  0  0  0  0  0  0  0  0  0  0  0
    0.0000   -6.5000   -0.0000 C   0  0  0  0  0  0  0  0  0  0  0  0
    0.8660    1.0000   -0.0000 C   0  0  0  0  0  0  0  0  0  0  0  0
    0.0000   -0.5000   -0.0000 C   0  0  0  0  0  0  0  0  0  0  0  0
   -0.8660   -6.0000   -0.0000 C   0  0  0  0  0  0  0  0  0  0  0  0
    0.0000   -7.5000   -0.0000 C   0  0  0  0  0  0  0  0  0  0  0  0
  1  2  2  0  0  0  0
  2  3  1  0  0  0  0
  2  4  1  0  0  0  0
  3  5  2  0  0  0  0
  3  6  1  0  0  0  0
  4  7  2  0  0  0  0
  4  8  1  0  0  0  0
  5  9  1  0  0  0  0
  5 10  1  0  0  0  0
  6 11  1  0  0  0  0
  6 12  2  0  0  0  0
  7 13  1  0  0  0  0
  8 14  2  0  0  0  0
  8 15  1  0  0  0  0
 10 16  2  0  0  0  0
 10 17  1  0  0  0  0
 13 18  2  0  0  0  0
 14 19  1  0  0  0  0
 15 20  1  0  0  0  0
 16 21  1  0  0  0  0
 17 22  1  0  0  0  0
 18 23  1  0  0  0  0
 20 24  2  0  0  0  0
 22 25  2  0  0  0  0
 24 26  1  0  0  0  0
 24 27  1  0  0  0  0
 25 28  1  0  0  0  0
 25 29  1  0  0  0  0
  7 11  1  0  0  0  0
 12 16  1  0  0  0  0
 14 18  1  0  0  0  0
M  END
>  <S/N>
59

>  <Compound ID>
C_060

>  <PubChem CID>
5464078

>  <Isomeric SMILES>
CC(=CCC1=C(C2=C(C=C1O)OC3=C(C2=O)C(=C(C(=C3)O)O)CC=C(C)C)O)C

>  <IC50 (�M)>
1.7

>  <pIC50>
5.77

$$$$
C_061
Actelion Java MolfileCreator 1.0

 31 33  0  0  0  0  0  0  0  0999 V2000
    1.7321   -1.5000   -0.0000 O   0  0  0  0  0  0  0  0  0  0  0  0
    2.5981   -2.0000   -0.0000 C   0  0  0  0  0  0  0  0  0  0  0  0
    2.5981   -3.0000   -0.0000 C   0  0  0  0  0  0  0  0  0  0  0  0
    3.4641   -1.5000   -0.0000 C   0  0  0  0  0  0  0  0  0  0  0  0
    1.7321   -3.5000   -0.0000 C   0  0  0  0  0  0  0  0  0  0  0  0
    3.4641   -3.5000   -0.0000 C   0  0  0  0  0  0  0  0  0  0  0  0
    4.3301   -2.0000   -0.0000 C   0  0  0  0  0  0  0  0  0  0  0  0
    3.4641   -0.5000   -0.0000 C   0  0  0  0  0  0  0  0  0  0  0  0
    0.8660   -3.0000   -0.0000 O   0  0  0  0  0  0  0  0  0  0  0  0
    1.7321   -4.5000   -0.0000 C   0  0  0  0  0  0  0  0  0  0  0  0
    4.3301   -3.0000   -0.0000 O   0  0  0  0  0  0  0  0  0  0  0  0
    3.4641   -4.5000   -0.0000 C   0  0  0  0  0  0  0  0  0  0  0  0
    5.1962   -1.5000   -0.0000 C   0  0  0  0  0  0  0  0  0  0  0  0
    4.3301    0.0000   -0.0000 C   0  0  0  0  0  0  0  0  0  0  0  0
    2.5981   -0.0000   -0.0000 C   0  0  0  0  0  0  0  0  0  0  0  0
    2.5981   -5.0000   -0.0000 C   0  0  0  0  0  0  0  0  0  0  0  0
    0.8660   -5.0000   -0.0000 C   0  0  0  0  0  0  0  0  0  0  0  0
    5.1962   -0.5000   -0.0000 C   0  0  0  0  0  0  0  0  0  0  0  0
    4.3301    1.0000   -0.0000 O   0  0  0  0  0  0  0  0  0  0  0  0
    1.7321   -0.5000   -0.0000 C   0  0  0  0  0  0  0  0  0  0  0  0
    2.5981   -6.0000   -0.0000 O   0  0  0  0  0  0  0  0  0  0  0  0
    0.8660   -6.0000   -0.0000 C   0  0  0  0  0  0  0  0  0  0  0  0
    6.0622    0.0000   -0.0000 O   0  0  0  0  0  0  0  0  0  0  0  0
    3.4641    1.5000   -0.0000 C   0  0  0  0  0  0  0  0  0  0  0  0
    0.8660   -0.0000   -0.0000 C   0  0  0  0  0  0  0  0  0  0  0  0
    3.4641   -6.5000   -0.0000 C   0  0  0  0  0  0  0  0  0  0  0  0
    0.0000   -6.5000   -0.0000 C   0  0  0  0  0  0  0  0  0  0  0  0
    0.8660    1.0000   -0.0000 C   0  0  0  0  0  0  0  0  0  0  0  0
    0.0000   -0.5000   -0.0000 C   0  0  0  0  0  0  0  0  0  0  0  0
   -0.8660   -6.0000   -0.0000 C   0  0  0  0  0  0  0  0  0  0  0  0
    0.0000   -7.5000   -0.0000 C   0  0  0  0  0  0  0  0  0  0  0  0
  1  2  2  0  0  0  0
  2  3  1  0  0  0  0
  2  4  1  0  0  0  0
  3  5  2  0  0  0  0
  3  6  1  0  0  0  0
  4  7  2  0  0  0  0
  4  8  1  0  0  0  0
  5  9  1  0  0  0  0
  5 10  1  0  0  0  0
  6 11  1  0  0  0  0
  6 12  2  0  0  0  0
  7 13  1  0  0  0  0
  8 14  2  0  0  0  0
  8 15  1  0  0  0  0
 10 16  2  0  0  0  0
 10 17  1  0  0  0  0
 13 18  2  0  0  0  0
 14 19  1  0  0  0  0
 15 20  1  0  0  0  0
 16 21  1  0  0  0  0
 17 22  1  0  0  0  0
 18 23  1  0  0  0  0
 19 24  1  0  0  0  0
 20 25  2  0  0  0  0
 21 26  1  0  0  0  0
 22 27  2  0  0  0  0
 25 28  1  0  0  0  0
 25 29  1  0  0  0  0
 27 30  1  0  0  0  0
 27 31  1  0  0  0  0
  7 11  1  0  0  0  0
 12 16  1  0  0  0  0
 14 18  1  0  0  0  0
M  END
>  <S/N>
60

>  <Compound ID>
C_061

>  <PubChem CID>
5495925

>  <Isomeric SMILES>
CC(=CCC1=C(C=C2C(=C1O)C(=O)C3=C(O2)C=C(C(=C3CC=C(C)C)OC)O)OC)C

>  <IC50 (�M)>
22.6

>  <pIC50>
4.65

$$$$
C_062
Actelion Java MolfileCreator 1.0

 30 33  0  0  0  0  0  0  0  0999 V2000
    2.5981   -2.2500   -0.0000 O   0  0  0  0  0  0  0  0  0  0  0  0
    3.8971   -3.0000   -0.0000 C   0  0  0  0  0  0  0  0  0  0  0  0
    3.8971   -4.5000   -0.0000 C   0  0  0  0  0  0  0  0  0  0  0  0
    5.1962   -2.2500   -0.0000 C   0  0  0  0  0  0  0  0  0  0  0  0
    2.5981   -5.2500   -0.0000 C   0  0  0  0  0  0  0  0  0  0  0  0
    5.1962   -5.2500   -0.0000 C   0  0  0  0  0  0  0  0  0  0  0  0
    6.4952   -3.0000   -0.0000 C   0  0  0  0  0  0  0  0  0  0  0  0
    5.1962   -0.7500   -0.0000 C   0  0  0  0  0  0  0  0  0  0  0  0
    1.2990   -4.5000   -0.0000 O   0  0  0  0  0  0  0  0  0  0  0  0
    2.5981   -6.7500   -0.0000 C   0  0  0  0  0  0  0  0  0  0  0  0
    6.4952   -4.5000   -0.0000 O   0  0  0  0  0  0  0  0  0  0  0  0
    5.1962   -6.7500   -0.0000 C   0  0  0  0  0  0  0  0  0  0  0  0
    7.7942   -2.2500   -0.0000 C   0  0  0  0  0  0  0  0  0  0  0  0
    6.4952    0.0000   -0.0000 C   0  0  0  0  0  0  0  0  0  0  0  0
    3.8971   -0.0000   -0.0000 C   0  0  0  0  0  0  0  0  0  0  0  0
    3.8971   -7.5000   -0.0000 C   0  0  0  0  0  0  0  0  0  0  0  0
    1.2990   -7.5000   -0.0000 C   0  0  0  0  0  0  0  0  0  0  0  0
    7.7942   -0.7500   -0.0000 C   0  0  0  0  0  0  0  0  0  0  0  0
    6.4952    1.5000   -0.0000 O   0  0  0  0  0  0  0  0  0  0  0  0
    2.5981   -0.7500   -0.0000 C   0  0  0  0  0  0  0  0  0  0  0  0
    3.8971   -9.0000   -0.0000 O   0  0  0  0  0  0  0  0  0  0  0  0
    1.2990   -9.0000   -0.0000 C   0  0  0  0  0  0  0  0  0  0  0  0
    9.0933    0.0000   -0.0000 O   0  0  0  0  0  0  0  0  0  0  0  0
    5.1962    2.2500   -0.0000 C   0  0  0  0  0  0  0  0  0  0  0  0
    1.2990   -0.0000   -0.0000 C   0  0  0  0  0  0  0  0  0  0  0  0
    2.5981   -9.7500   -0.0000 C   0  0  0  0  0  0  0  0  0  0  0  0
    1.2990    1.5000   -0.0000 C   0  0  0  0  0  0  0  0  0  0  0  0
    0.0000   -0.7500   -0.0000 C   0  0  0  0  0  0  0  0  0  0  0  0
    1.8481  -11.0490   -0.0000 C   0  0  0  0  0  0  0  0  0  0  0  0
    3.3481  -11.0490   -0.0000 C   0  0  0  0  0  0  0  0  0  0  0  0
  1  2  2  0  0  0  0
  2  3  1  0  0  0  0
  2  4  1  0  0  0  0
  3  5  2  0  0  0  0
  3  6  1  0  0  0  0
  4  7  2  0  0  0  0
  4  8  1  0  0  0  0
  5  9  1  0  0  0  0
  5 10  1  0  0  0  0
  6 11  1  0  0  0  0
  6 12  2  0  0  0  0
  7 13  1  0  0  0  0
  8 14  2  0  0  0  0
  8 15  1  0  0  0  0
 10 16  2  0  0  0  0
 10 17  1  0  0  0  0
 13 18  2  0  0  0  0
 14 19  1  0  0  0  0
 15 20  1  0  0  0  0
 16 21  1  0  0  0  0
 17 22  2  0  0  0  0
 18 23  1  0  0  0  0
 19 24  1  0  0  0  0
 20 25  2  0  0  0  0
 21 26  1  0  0  0  0
 25 27  1  0  0  0  0
 25 28  1  0  0  0  0
 26 29  1  0  0  0  0
 26 30  1  0  0  0  0
  7 11  1  0  0  0  0
 12 16  1  0  0  0  0
 14 18  1  0  0  0  0
 22 26  1  0  0  0  0
M  END
>  <S/N>
61

>  <Compound ID>
C_062

>  <PubChem CID>
5495929

>  <Isomeric SMILES>
CC(=CCC1=C(C(=CC2=C1C(=O)C3=C(C4=C(C=C3O2)OC(C=C4)(C)C)O)O)OC)C

>  <IC50 (�M)>
11.4

>  <pIC50>
4.94

$$$$
C_063
Actelion Java MolfileCreator 1.0

 35 39  0  0  0  0  0  0  0  0999 V2000
    4.4347    0.9945   -0.0000 S   0  0  0  0  0  0  0  0  0  0  0  0
    4.3301   -0.0000   -0.0000 C   0  0  0  0  0  0  0  0  0  0  0  0
    5.4128    1.2024   -0.0000 C   0  0  0  0  0  0  0  0  0  0  0  0
    5.2437   -0.4067   -0.0000 N   0  0  0  0  0  0  0  0  0  0  0  0
    3.4641   -0.5000   -0.0000 N   0  0  0  0  0  0  0  0  0  0  0  0
    5.9128    0.3364   -0.0000 C   0  0  0  0  0  0  0  0  0  0  0  0
    2.5981   -0.0000   -0.0000 C   0  0  0  0  0  0  0  0  0  0  0  0
    6.9073    0.2319   -0.0000 C   0  0  0  0  0  0  0  0  0  0  0  0
    2.5981    1.0000   -0.0000 O   0  0  0  0  0  0  0  0  0  0  0  0
    1.7321   -0.5000   -0.0000 C   0  0  0  0  0  0  0  0  0  0  0  0
    7.3141   -0.6817   -0.0000 C   0  0  0  0  0  0  0  0  0  0  0  0
    7.4951    1.0409   -0.0000 C   0  0  0  0  0  0  0  0  0  0  0  0
    0.8660   -0.0000   -0.0000 S   0  0  0  0  0  0  0  0  0  0  0  0
    8.3086   -0.7862   -0.0000 C   0  0  0  0  0  0  0  0  0  0  0  0
    8.4896    0.9364   -0.0000 C   0  0  0  0  0  0  0  0  0  0  0  0
    0.0000   -0.5000   -0.0000 C   0  0  0  0  0  0  0  0  0  0  0  0
    8.8964    0.0228   -0.0000 C   0  0  0  0  0  0  0  0  0  0  0  0
   -0.8660    0.0000   -0.0000 N   0  0  0  0  0  0  0  0  0  0  0  0
   -0.0000   -1.5000   -0.0000 N   0  0  0  0  0  0  0  0  0  0  0  0
    9.8909   -0.0817   -0.0000 C   0  0  0  0  0  0  0  0  0  0  0  0
   -1.7321   -0.5000   -0.0000 N   0  0  0  0  0  0  0  0  0  0  0  0
   -0.8660   -2.0000   -0.0000 C   0  0  0  0  0  0  0  0  0  0  0  0
   -1.7321   -1.5000   -0.0000 C   0  0  0  0  0  0  0  0  0  0  0  0
   -0.8660   -3.0000   -0.0000 C   0  0  0  0  0  0  0  0  0  0  0  0
   -2.5981   -2.0000   -0.0000 C   0  0  0  0  0  0  0  0  0  0  0  0
   -1.7321   -3.5000   -0.0000 C   0  0  0  0  0  0  0  0  0  0  0  0
   -0.0000   -3.5000   -0.0000 C   0  0  0  0  0  0  0  0  0  0  0  0
   -3.4641   -1.5000   -0.0000 C   0  0  0  0  0  0  0  0  0  0  0  0
   -2.5981   -3.0000   -0.0000 C   0  0  0  0  0  0  0  0  0  0  0  0
   -1.7321   -4.5000   -0.0000 C   0  0  0  0  0  0  0  0  0  0  0  0
   -0.0000   -4.5000   -0.0000 C   0  0  0  0  0  0  0  0  0  0  0  0
   -4.3301   -2.0000   -0.0000 C   0  0  0  0  0  0  0  0  0  0  0  0
   -3.4641   -3.5000   -0.0000 C   0  0  0  0  0  0  0  0  0  0  0  0
   -0.8660   -5.0000   -0.0000 C   0  0  0  0  0  0  0  0  0  0  0  0
   -4.3301   -3.0000   -0.0000 C   0  0  0  0  0  0  0  0  0  0  0  0
  1  2  1  0  0  0  0
  1  3  1  0  0  0  0
  2  4  2  0  0  0  0
  2  5  1  0  0  0  0
  3  6  2  0  0  0  0
  5  7  1  0  0  0  0
  6  8  1  0  0  0  0
  7  9  2  0  0  0  0
  7 10  1  0  0  0  0
  8 11  2  0  0  0  0
  8 12  1  0  0  0  0
 10 13  1  0  0  0  0
 11 14  1  0  0  0  0
 12 15  2  0  0  0  0
 13 16  1  0  0  0  0
 14 17  2  0  0  0  0
 16 18  2  0  0  0  0
 16 19  1  0  0  0  0
 17 20  1  0  0  0  0
 18 21  1  0  0  0  0
 19 22  2  0  0  0  0
 21 23  2  0  0  0  0
 22 24  1  0  0  0  0
 23 25  1  0  0  0  0
 24 26  2  0  0  0  0
 24 27  1  0  0  0  0
 25 28  2  0  0  0  0
 25 29  1  0  0  0  0
 26 30  1  0  0  0  0
 27 31  2  0  0  0  0
 28 32  1  0  0  0  0
 29 33  2  0  0  0  0
 30 34  2  0  0  0  0
 32 35  2  0  0  0  0
  4  6  1  0  0  0  0
 15 17  1  0  0  0  0
 22 23  1  0  0  0  0
 31 34  1  0  0  0  0
 33 35  1  0  0  0  0
M  END
>  <S/N>
62

>  <Compound ID>
C_063

>  <PubChem CID>
6407588

>  <Isomeric SMILES>
CC1=CC=C(C=C1)C2=CSC(=N2)NC(=O)CSC3=NC(=C(N=N3)C4=CC=CC=C4)C5=CC=CC=C5

>  <IC50 (�M)>
2.8

>  <pIC50>
5.55

$$$$
C_064
Actelion Java MolfileCreator 1.0

 34 38  0  0  0  0  0  0  0  0999 V2000
    4.4347    0.9945   -0.0000 S   0  0  0  0  0  0  0  0  0  0  0  0
    4.3301   -0.0000   -0.0000 C   0  0  0  0  0  0  0  0  0  0  0  0
    5.4128    1.2024   -0.0000 C   0  0  0  0  0  0  0  0  0  0  0  0
    5.2437   -0.4067   -0.0000 N   0  0  0  0  0  0  0  0  0  0  0  0
    3.4641   -0.5000   -0.0000 N   0  0  0  0  0  0  0  0  0  0  0  0
    5.9128    0.3364   -0.0000 C   0  0  0  0  0  0  0  0  0  0  0  0
    2.5981   -0.0000   -0.0000 C   0  0  0  0  0  0  0  0  0  0  0  0
    6.9073    0.2319   -0.0000 C   0  0  0  0  0  0  0  0  0  0  0  0
    2.5981    1.0000   -0.0000 O   0  0  0  0  0  0  0  0  0  0  0  0
    1.7321   -0.5000   -0.0000 C   0  0  0  0  0  0  0  0  0  0  0  0
    7.3141   -0.6817   -0.0000 C   0  0  0  0  0  0  0  0  0  0  0  0
    7.4951    1.0409   -0.0000 C   0  0  0  0  0  0  0  0  0  0  0  0
    0.8660   -0.0000   -0.0000 S   0  0  0  0  0  0  0  0  0  0  0  0
    8.3086   -0.7862   -0.0000 C   0  0  0  0  0  0  0  0  0  0  0  0
    8.4896    0.9364   -0.0000 C   0  0  0  0  0  0  0  0  0  0  0  0
    0.0000   -0.5000   -0.0000 C   0  0  0  0  0  0  0  0  0  0  0  0
    8.8964    0.0228   -0.0000 C   0  0  0  0  0  0  0  0  0  0  0  0
   -0.8660    0.0000   -0.0000 N   0  0  0  0  0  0  0  0  0  0  0  0
   -0.0000   -1.5000   -0.0000 N   0  0  0  0  0  0  0  0  0  0  0  0
   -1.7321   -0.5000   -0.0000 N   0  0  0  0  0  0  0  0  0  0  0  0
   -0.8660   -2.0000   -0.0000 C   0  0  0  0  0  0  0  0  0  0  0  0
   -1.7321   -1.5000   -0.0000 C   0  0  0  0  0  0  0  0  0  0  0  0
   -0.8660   -3.0000   -0.0000 C   0  0  0  0  0  0  0  0  0  0  0  0
   -2.5981   -2.0000   -0.0000 C   0  0  0  0  0  0  0  0  0  0  0  0
   -1.7321   -3.5000   -0.0000 C   0  0  0  0  0  0  0  0  0  0  0  0
   -0.0000   -3.5000   -0.0000 C   0  0  0  0  0  0  0  0  0  0  0  0
   -3.4641   -1.5000   -0.0000 C   0  0  0  0  0  0  0  0  0  0  0  0
   -2.5981   -3.0000   -0.0000 C   0  0  0  0  0  0  0  0  0  0  0  0
   -1.7321   -4.5000   -0.0000 C   0  0  0  0  0  0  0  0  0  0  0  0
   -0.0000   -4.5000   -0.0000 C   0  0  0  0  0  0  0  0  0  0  0  0
   -4.3301   -2.0000   -0.0000 C   0  0  0  0  0  0  0  0  0  0  0  0
   -3.4641   -3.5000   -0.0000 C   0  0  0  0  0  0  0  0  0  0  0  0
   -0.8660   -5.0000   -0.0000 C   0  0  0  0  0  0  0  0  0  0  0  0
   -4.3301   -3.0000   -0.0000 C   0  0  0  0  0  0  0  0  0  0  0  0
  1  2  1  0  0  0  0
  1  3  1  0  0  0  0
  2  4  2  0  0  0  0
  2  5  1  0  0  0  0
  3  6  2  0  0  0  0
  5  7  1  0  0  0  0
  6  8  1  0  0  0  0
  7  9  2  0  0  0  0
  7 10  1  0  0  0  0
  8 11  2  0  0  0  0
  8 12  1  0  0  0  0
 10 13  1  0  0  0  0
 11 14  1  0  0  0  0
 12 15  2  0  0  0  0
 13 16  1  0  0  0  0
 14 17  2  0  0  0  0
 16 18  2  0  0  0  0
 16 19  1  0  0  0  0
 18 20  1  0  0  0  0
 19 21  2  0  0  0  0
 20 22  2  0  0  0  0
 21 23  1  0  0  0  0
 22 24  1  0  0  0  0
 23 25  2  0  0  0  0
 23 26  1  0  0  0  0
 24 27  2  0  0  0  0
 24 28  1  0  0  0  0
 25 29  1  0  0  0  0
 26 30  2  0  0  0  0
 27 31  1  0  0  0  0
 28 32  2  0  0  0  0
 29 33  2  0  0  0  0
 31 34  2  0  0  0  0
  4  6  1  0  0  0  0
 15 17  1  0  0  0  0
 21 22  1  0  0  0  0
 30 33  1  0  0  0  0
 32 34  1  0  0  0  0
M  END
>  <S/N>
63

>  <Compound ID>
C_064

>  <PubChem CID>
6411033

>  <Isomeric SMILES>
C1=CC=C(C=C1)C2=CSC(=N2)NC(=O)CSC3=NC(=C(N=N3)C4=CC=CC=C4)C5=CC=CC=C5

>  <IC50 (�M)>
2.8

>  <pIC50>
5.55

$$$$
C_065
Actelion Java MolfileCreator 1.0

 35 39  0  0  0  0  0  0  0  0999 V2000
    4.4347    0.9945   -0.0000 S   0  0  0  0  0  0  0  0  0  0  0  0
    4.3301   -0.0000   -0.0000 C   0  0  0  0  0  0  0  0  0  0  0  0
    5.4128    1.2024   -0.0000 C   0  0  0  0  0  0  0  0  0  0  0  0
    5.2437   -0.4067   -0.0000 N   0  0  0  0  0  0  0  0  0  0  0  0
    3.4641   -0.5000   -0.0000 N   0  0  0  0  0  0  0  0  0  0  0  0
    5.9128    0.3364   -0.0000 C   0  0  0  0  0  0  0  0  0  0  0  0
    2.5981   -0.0000   -0.0000 C   0  0  0  0  0  0  0  0  0  0  0  0
    6.9073    0.2319   -0.0000 C   0  0  0  0  0  0  0  0  0  0  0  0
    2.5981    1.0000   -0.0000 O   0  0  0  0  0  0  0  0  0  0  0  0
    1.7321   -0.5000   -0.0000 C   0  0  0  0  0  0  0  0  0  0  0  0
    7.3141   -0.6817   -0.0000 C   0  0  0  0  0  0  0  0  0  0  0  0
    7.4951    1.0409   -0.0000 C   0  0  0  0  0  0  0  0  0  0  0  0
    0.8660   -0.0000   -0.0000 S   0  0  0  0  0  0  0  0  0  0  0  0
    8.3086   -0.7862   -0.0000 C   0  0  0  0  0  0  0  0  0  0  0  0
    8.4896    0.9364   -0.0000 C   0  0  0  0  0  0  0  0  0  0  0  0
    0.0000   -0.5000   -0.0000 C   0  0  0  0  0  0  0  0  0  0  0  0
    8.8964    0.0228   -0.0000 C   0  0  0  0  0  0  0  0  0  0  0  0
   -0.8660    0.0000   -0.0000 N   0  0  0  0  0  0  0  0  0  0  0  0
   -0.0000   -1.5000   -0.0000 N   0  0  0  0  0  0  0  0  0  0  0  0
    9.8909   -0.0817   -0.0000 F   0  0  0  0  0  0  0  0  0  0  0  0
   -1.7321   -0.5000   -0.0000 N   0  0  0  0  0  0  0  0  0  0  0  0
   -0.8660   -2.0000   -0.0000 C   0  0  0  0  0  0  0  0  0  0  0  0
   -1.7321   -1.5000   -0.0000 C   0  0  0  0  0  0  0  0  0  0  0  0
   -0.8660   -3.0000   -0.0000 C   0  0  0  0  0  0  0  0  0  0  0  0
   -2.5981   -2.0000   -0.0000 C   0  0  0  0  0  0  0  0  0  0  0  0
   -1.7321   -3.5000   -0.0000 C   0  0  0  0  0  0  0  0  0  0  0  0
   -0.0000   -3.5000   -0.0000 C   0  0  0  0  0  0  0  0  0  0  0  0
   -3.4641   -1.5000   -0.0000 C   0  0  0  0  0  0  0  0  0  0  0  0
   -2.5981   -3.0000   -0.0000 C   0  0  0  0  0  0  0  0  0  0  0  0
   -1.7321   -4.5000   -0.0000 C   0  0  0  0  0  0  0  0  0  0  0  0
   -0.0000   -4.5000   -0.0000 C   0  0  0  0  0  0  0  0  0  0  0  0
   -4.3301   -2.0000   -0.0000 C   0  0  0  0  0  0  0  0  0  0  0  0
   -3.4641   -3.5000   -0.0000 C   0  0  0  0  0  0  0  0  0  0  0  0
   -0.8660   -5.0000   -0.0000 C   0  0  0  0  0  0  0  0  0  0  0  0
   -4.3301   -3.0000   -0.0000 C   0  0  0  0  0  0  0  0  0  0  0  0
  1  2  1  0  0  0  0
  1  3  1  0  0  0  0
  2  4  2  0  0  0  0
  2  5  1  0  0  0  0
  3  6  2  0  0  0  0
  5  7  1  0  0  0  0
  6  8  1  0  0  0  0
  7  9  2  0  0  0  0
  7 10  1  0  0  0  0
  8 11  2  0  0  0  0
  8 12  1  0  0  0  0
 10 13  1  0  0  0  0
 11 14  1  0  0  0  0
 12 15  2  0  0  0  0
 13 16  1  0  0  0  0
 14 17  2  0  0  0  0
 16 18  2  0  0  0  0
 16 19  1  0  0  0  0
 17 20  1  0  0  0  0
 18 21  1  0  0  0  0
 19 22  2  0  0  0  0
 21 23  2  0  0  0  0
 22 24  1  0  0  0  0
 23 25  1  0  0  0  0
 24 26  2  0  0  0  0
 24 27  1  0  0  0  0
 25 28  2  0  0  0  0
 25 29  1  0  0  0  0
 26 30  1  0  0  0  0
 27 31  2  0  0  0  0
 28 32  1  0  0  0  0
 29 33  2  0  0  0  0
 30 34  2  0  0  0  0
 32 35  2  0  0  0  0
  4  6  1  0  0  0  0
 15 17  1  0  0  0  0
 22 23  1  0  0  0  0
 31 34  1  0  0  0  0
 33 35  1  0  0  0  0
M  END
>  <S/N>
64

>  <Compound ID>
C_065

>  <PubChem CID>
6415895

>  <Isomeric SMILES>
C1=CC=C(C=C1)C2=C(N=NC(=N2)SCC(=O)NC3=NC(=CS3)C4=CC=C(C=C4)F)C5=CC=CC=C5

>  <IC50 (�M)>
2.8

>  <pIC50>
5.55

$$$$
C_066
Actelion Java MolfileCreator 1.0

 20 20  0  0  1  0  0  0  0  0999 V2000
    4.3301   -0.0000   -0.0000 S   0  0  0  0  0  0  0  0  0  0  0  0
    4.8301   -0.8660   -0.0000 O   0  0  0  0  0  0  0  0  0  0  0  0
    3.8301    0.8660   -0.0000 O   0  0  0  0  0  0  0  0  0  0  0  0
    3.4641   -0.5000   -0.0000 O   0  0  0  0  0  0  0  0  0  0  0  0
    5.1962    0.5000   -0.0000 O   0  0  0  0  0  0  0  0  0  0  0  0
    2.5981   -0.0000   -0.0000 C   0  0  0  0  0  0  0  0  0  0  0  0
    1.7321   -0.5000   -0.0000 C   0  0  0  0  0  0  0  0  0  0  0  0
    2.5981    1.0000   -0.0000 C   0  0  0  0  0  0  0  0  0  0  0  0
    1.7321   -1.5000   -0.0000 O   0  0  0  0  0  0  0  0  0  0  0  0
    0.8660   -0.0000   -0.0000 C   0  0  0  0  0  0  0  0  0  0  0  0
    1.7321    1.5000   -0.0000 O   0  0  0  0  0  0  0  0  0  0  0  0
    0.0000   -0.5000   -0.0000 S   0  0  0  0  0  0  0  0  0  0  0  0
   -0.9135   -0.0933   -0.0000 C   0  0  0  0  0  0  0  0  0  0  0  0
   -0.1045   -1.4945   -0.0000 C   0  0  0  0  0  0  0  0  0  0  0  0
   -1.5827   -0.8364   -0.0000 C   0  0  0  0  0  0  0  0  0  0  0  0
   -1.1215    0.8849   -0.0000 C   0  0  0  0  0  0  0  0  0  0  0  0
   -1.0827   -1.7024   -0.0000 C   0  0  0  0  0  0  0  0  0  0  0  0
   -2.5772   -0.7319   -0.0000 O   0  0  0  0  0  0  0  0  0  0  0  0
   -2.0725    1.1939   -0.0000 O   0  0  0  0  0  0  0  0  0  0  0  0
   -1.4894   -2.6160   -0.0000 O   0  0  0  0  0  0  0  0  0  0  0  0
  1  2  2  0  0  0  0
  1  3  2  0  0  0  0
  1  4  1  0  0  0  0
  1  5  1  0  0  0  0
  6  4  1  6  0  0  0
  6  7  1  0  0  0  0
  6  8  1  0  0  0  0
  7  9  1  6  0  0  0
  7 10  1  0  0  0  0
  8 11  1  0  0  0  0
 10 12  1  0  0  0  0
 12 13  1  0  0  0  0
 12 14  1  0  0  0  0
 13 15  1  0  0  0  0
 13 16  1  1  0  0  0
 14 17  1  0  0  0  0
 15 18  1  6  0  0  0
 16 19  1  0  0  0  0
 17 20  1  1  0  0  0
 15 17  1  0  0  0  0
M  CHG  2   5  -1  12   1
M  END
>  <S/N>
65

>  <Compound ID>
C_066

>  <PubChem CID>
6451151

>  <Isomeric SMILES>
C1[C@H]([C@@H]([C@H]([S+]1C[C@H]([C@H](CO)OS(=O)(=O)[O-])O)CO)O)O

>  <IC50 (�M)>
4.9

>  <pIC50>
5.31

$$$$
C_069
Actelion Java MolfileCreator 1.0

 17 17  0  0  1  0  0  0  0  0999 V2000
    6.0622   -2.0000   -0.0000 O   0  0  0  0  0  0  0  0  0  0  0  0
    5.1962   -1.5000   -0.0000 C   0  0  0  0  0  0  0  0  0  0  0  0
    5.1962   -0.5000   -0.0000 C   0  0  0  0  0  0  0  0  0  0  0  0
    4.3301   -2.0000   -0.0000 C   0  0  0  0  0  0  0  0  0  0  0  0
    6.0622   -0.0000   -0.0000 O   0  0  0  0  0  0  0  0  0  0  0  0
    4.3301    0.0000   -0.0000 C   0  0  0  0  0  0  0  0  0  0  0  0
    4.3301   -3.0000   -0.0000 O   0  0  0  0  0  0  0  0  0  0  0  0
    3.4641   -1.5000   -0.0000 C   0  0  0  0  0  0  0  0  0  0  0  0
    3.4641   -0.5000   -0.0000 N   0  0  0  0  0  0  0  0  0  0  0  0
    4.3301    1.0000   -0.0000 C   0  0  0  0  0  0  0  0  0  0  0  0
    2.5981   -2.0000   -0.0000 C   0  0  0  0  0  0  0  0  0  0  0  0
    2.5981   -0.0000   -0.0000 C   0  0  0  0  0  0  0  0  0  0  0  0
    3.4641    1.5000   -0.0000 O   0  0  0  0  0  0  0  0  0  0  0  0
    2.5981   -3.0000   -0.0000 O   0  0  0  0  0  0  0  0  0  0  0  0
    1.7321   -0.5000   -0.0000 C   0  0  0  0  0  0  0  0  0  0  0  0
    0.8660   -0.0000   -0.0000 C   0  0  0  0  0  0  0  0  0  0  0  0
    0.0000   -0.5000   -0.0000 C   0  0  0  0  0  0  0  0  0  0  0  0
  1  2  1  0  0  0  0
  2  3  1  0  0  0  0
  2  4  1  0  0  0  0
  3  5  1  6  0  0  0
  3  6  1  0  0  0  0
  4  7  1  6  0  0  0
  4  8  1  0  0  0  0
  6  9  1  0  0  0  0
  6 10  1  6  0  0  0
  8 11  1  1  0  0  0
  9 12  1  0  0  0  0
 10 13  1  0  0  0  0
 11 14  1  0  0  0  0
 12 15  1  0  0  0  0
 15 16  1  0  0  0  0
 16 17  1  0  0  0  0
  8  9  1  0  0  0  0
M  END
>  <S/N>
66

>  <Compound ID>
C_069

>  <PubChem CID>
6475031

>  <Isomeric SMILES>
CCCCN1[C@@H]([C@H](C([C@H]([C@H]1CO)O)O)O)CO

>  <IC50 (�M)>
4.2

>  <pIC50>
5.38

$$$$
C_070
Actelion Java MolfileCreator 1.0

 14 14  0  0  1  0  0  0  0  0999 V2000
    4.3301   -0.0000   -0.0000 O   0  0  0  0  0  0  0  0  0  0  0  0
    3.4641   -0.5000   -0.0000 C   0  0  0  0  0  0  0  0  0  0  0  0
    2.5981   -0.0000   -0.0000 C   0  0  0  0  0  0  0  0  0  0  0  0
    3.4641   -1.5000   -0.0000 C   0  0  0  0  0  0  0  0  0  0  0  0
    2.5981    1.0000   -0.0000 O   0  0  0  0  0  0  0  0  0  0  0  0
    1.7321   -0.5000   -0.0000 C   0  0  0  0  0  0  0  0  0  0  0  0
    4.3301   -2.0000   -0.0000 O   0  0  0  0  0  0  0  0  0  0  0  0
    2.5981   -2.0000   -0.0000 C   0  0  0  0  0  0  0  0  0  0  0  0
    1.7321   -1.5000   -0.0000 N   0  0  0  0  0  0  0  0  0  0  0  0
    0.8660   -0.0000   -0.0000 C   0  0  0  0  0  0  0  0  0  0  0  0
    2.5981   -3.0000   -0.0000 C   0  0  0  0  0  0  0  0  0  0  0  0
    0.8660   -2.0000   -0.0000 C   0  0  0  0  0  0  0  0  0  0  0  0
    0.0000   -0.5000   -0.0000 O   0  0  0  0  0  0  0  0  0  0  0  0
    3.4641   -3.5000   -0.0000 O   0  0  0  0  0  0  0  0  0  0  0  0
  1  2  1  0  0  0  0
  2  3  1  0  0  0  0
  2  4  1  0  0  0  0
  3  5  1  6  0  0  0
  3  6  1  0  0  0  0
  4  7  1  6  0  0  0
  4  8  1  0  0  0  0
  6  9  1  0  0  0  0
  6 10  1  6  0  0  0
  8 11  1  1  0  0  0
  9 12  1  0  0  0  0
 10 13  1  0  0  0  0
 11 14  1  0  0  0  0
  8  9  1  0  0  0  0
M  END
>  <S/N>
67

>  <Compound ID>
C_070

>  <PubChem CID>
6477160

>  <Isomeric SMILES>
CN1[C@@H]([C@H](C([C@H]([C@H]1CO)O)O)O)CO

>  <IC50 (�M)>
0.06

>  <pIC50>
7.22

$$$$
C_071
Actelion Java MolfileCreator 1.0

 22 24  0  0  0  0  0  0  0  0999 V2000
    5.1962   -1.5000   -0.0000 O   0  0  0  0  0  0  0  0  0  0  0  0
    5.1962   -0.5000   -0.0000 C   0  0  0  0  0  0  0  0  0  0  0  0
    6.0622   -0.0000   -0.0000 O   0  0  0  0  0  0  0  0  0  0  0  0
    4.3301   -0.0000   -0.0000 C   0  0  0  0  0  0  0  0  0  0  0  0
    6.0622    1.0000   -0.0000 C   0  0  0  0  0  0  0  0  0  0  0  0
    3.4641   -0.5000   -0.0000 C   0  0  0  0  0  0  0  0  0  0  0  0
    4.3301    1.0000   -0.0000 C   0  0  0  0  0  0  0  0  0  0  0  0
    5.1962    1.5000   -0.0000 C   0  0  0  0  0  0  0  0  0  0  0  0
    6.9282    1.5000   -0.0000 C   0  0  0  0  0  0  0  0  0  0  0  0
    3.4641   -1.5000   -0.0000 O   0  0  0  0  0  0  0  0  0  0  0  0
    2.5981   -0.0000   -0.0000 N   0  0  0  0  0  0  0  0  0  0  0  0
    5.1962    2.5000   -0.0000 C   0  0  0  0  0  0  0  0  0  0  0  0
    6.9282    2.5000   -0.0000 C   0  0  0  0  0  0  0  0  0  0  0  0
    1.7321   -0.5000   -0.0000 N   0  0  0  0  0  0  0  0  0  0  0  0
    6.0622    3.0000   -0.0000 C   0  0  0  0  0  0  0  0  0  0  0  0
    0.8660   -0.0000   -0.0000 C   0  0  0  0  0  0  0  0  0  0  0  0
    0.0000   -0.5000   -0.0000 C   0  0  0  0  0  0  0  0  0  0  0  0
   -0.8660    0.0000   -0.0000 C   0  0  0  0  0  0  0  0  0  0  0  0
   -0.0000   -1.5000   -0.0000 C   0  0  0  0  0  0  0  0  0  0  0  0
   -1.7321   -0.5000   -0.0000 C   0  0  0  0  0  0  0  0  0  0  0  0
   -0.8660   -2.0000   -0.0000 C   0  0  0  0  0  0  0  0  0  0  0  0
   -1.7321   -1.5000   -0.0000 C   0  0  0  0  0  0  0  0  0  0  0  0
  1  2  2  0  0  0  0
  2  3  1  0  0  0  0
  2  4  1  0  0  0  0
  3  5  1  0  0  0  0
  4  6  1  0  0  0  0
  4  7  2  0  0  0  0
  5  8  2  0  0  0  0
  5  9  1  0  0  0  0
  6 10  2  0  0  0  0
  6 11  1  0  0  0  0
  8 12  1  0  0  0  0
  9 13  2  0  0  0  0
 11 14  1  0  0  0  0
 12 15  2  0  0  0  0
 14 16  2  0  0  0  0
 16 17  1  0  0  0  0
 17 18  2  0  0  0  0
 17 19  1  0  0  0  0
 18 20  1  0  0  0  0
 19 21  2  0  0  0  0
 20 22  2  0  0  0  0
  7  8  1  0  0  0  0
 13 15  1  0  0  0  0
 21 22  1  0  0  0  0
M  END
>  <S/N>
68

>  <Compound ID>
C_071

>  <PubChem CID>
6870730

>  <Isomeric SMILES>
C1=CC=C(C=C1)/C=N/NC(=O)C2=CC3=CC=CC=C3OC2=O

>  <IC50 (�M)>
1.1

>  <pIC50>
5.96

$$$$
C_072
Actelion Java MolfileCreator 1.0

 15 16  0  0  0  0  0  0  0  0999 V2000
    6.6520   -4.4918   -0.0000 S   0  0  0  0  0  0  0  0  0  0  0  0
    8.1192   -4.8037   -0.0000 C   0  0  0  0  0  0  0  0  0  0  0  0
    6.4952   -3.0000   -0.0000 C   0  0  0  0  0  0  0  0  0  0  0  0
    8.8692   -3.5046   -0.0000 N   0  0  0  0  0  0  0  0  0  0  0  0
    8.7293   -6.1740   -0.0000 N   0  0  0  0  0  0  0  0  0  0  0  0
    7.8655   -2.3899   -0.0000 N   0  0  0  0  0  0  0  0  0  0  0  0
    5.1962   -2.2500   -0.0000 C   0  0  0  0  0  0  0  0  0  0  0  0
    5.1962   -0.7500   -0.0000 C   0  0  0  0  0  0  0  0  0  0  0  0
    3.8971   -3.0000   -0.0000 C   0  0  0  0  0  0  0  0  0  0  0  0
    3.8971    0.0000   -0.0000 C   0  0  0  0  0  0  0  0  0  0  0  0
    2.5981   -2.2500   -0.0000 C   0  0  0  0  0  0  0  0  0  0  0  0
    2.5981   -0.7500   -0.0000 C   0  0  0  0  0  0  0  0  0  0  0  0
    1.2990   -0.0000   -0.0000 N   0  0  0  0  0  0  0  0  0  0  0  0
    1.2990    1.5000   -0.0000 C   0  0  0  0  0  0  0  0  0  0  0  0
    0.0000   -0.7500   -0.0000 C   0  0  0  0  0  0  0  0  0  0  0  0
  1  2  1  0  0  0  0
  1  3  1  0  0  0  0
  2  4  2  0  0  0  0
  2  5  1  0  0  0  0
  3  6  2  0  0  0  0
  3  7  1  0  0  0  0
  7  8  2  0  0  0  0
  7  9  1  0  0  0  0
  8 10  1  0  0  0  0
  9 11  2  0  0  0  0
 10 12  2  0  0  0  0
 12 13  1  0  0  0  0
 13 14  1  0  0  0  0
 13 15  1  0  0  0  0
  4  6  1  0  0  0  0
 11 12  1  0  0  0  0
M  END
>  <S/N>
69

>  <Compound ID>
C_072

>  <PubChem CID>
7479831

>  <Isomeric SMILES>
CN(C)C1=CC=C(C=C1)C2=NN=C(S2)N

>  <IC50 (�M)>
2.3

>  <pIC50>
5.64

$$$$
C_073
Actelion Java MolfileCreator 1.0

 21 23  0  0  0  0  0  0  0  0999 V2000
    6.9282    1.5000   -0.0000 Cl  0  0  0  0  0  0  0  0  0  0  0  0
    6.0622    1.0000   -0.0000 C   0  0  0  0  0  0  0  0  0  0  0  0
    5.1962    1.5000   -0.0000 C   0  0  0  0  0  0  0  0  0  0  0  0
    6.0622   -0.0000   -0.0000 C   0  0  0  0  0  0  0  0  0  0  0  0
    4.3301    1.0000   -0.0000 C   0  0  0  0  0  0  0  0  0  0  0  0
    5.1962   -0.5000   -0.0000 C   0  0  0  0  0  0  0  0  0  0  0  0
    4.3301   -0.0000   -0.0000 C   0  0  0  0  0  0  0  0  0  0  0  0
    3.4641   -0.5000   -0.0000 C   0  0  0  0  0  0  0  0  0  0  0  0
    2.5981   -0.0000   -0.0000 N   0  0  0  0  0  0  0  0  0  0  0  0
    1.7321   -0.5000   -0.0000 N   0  0  0  0  0  0  0  0  0  0  0  0
    0.8660   -0.0000   -0.0000 C   0  0  0  0  0  0  0  0  0  0  0  0
    0.8660    1.0000   -0.0000 O   0  0  0  0  0  0  0  0  0  0  0  0
    0.0000   -0.5000   -0.0000 C   0  0  0  0  0  0  0  0  0  0  0  0
   -0.9135   -0.0933   -0.0000 N   0  0  0  0  0  0  0  0  0  0  0  0
   -0.1045   -1.4945   -0.0000 C   0  0  0  0  0  0  0  0  0  0  0  0
   -1.5827   -0.8364   -0.0000 C   0  0  0  0  0  0  0  0  0  0  0  0
   -1.0827   -1.7024   -0.0000 C   0  0  0  0  0  0  0  0  0  0  0  0
   -2.5827   -0.8364   -0.0000 C   0  0  0  0  0  0  0  0  0  0  0  0
   -1.5827   -2.5685   -0.0000 C   0  0  0  0  0  0  0  0  0  0  0  0
   -3.0827   -1.7024   -0.0000 C   0  0  0  0  0  0  0  0  0  0  0  0
   -2.5827   -2.5685   -0.0000 C   0  0  0  0  0  0  0  0  0  0  0  0
  1  2  1  0  0  0  0
  2  3  2  0  0  0  0
  2  4  1  0  0  0  0
  3  5  1  0  0  0  0
  4  6  2  0  0  0  0
  5  7  2  0  0  0  0
  7  8  1  0  0  0  0
  8  9  2  0  0  0  0
  9 10  1  0  0  0  0
 10 11  1  0  0  0  0
 11 12  2  0  0  0  0
 11 13  1  0  0  0  0
 13 14  1  0  0  0  0
 13 15  2  0  0  0  0
 14 16  1  0  0  0  0
 15 17  1  0  0  0  0
 16 18  2  0  0  0  0
 17 19  2  0  0  0  0
 18 20  1  0  0  0  0
 19 21  1  0  0  0  0
  6  7  1  0  0  0  0
 16 17  1  0  0  0  0
 20 21  2  0  0  0  0
M  END
>  <S/N>
70

>  <Compound ID>
C_073

>  <PubChem CID>
9689210

>  <Isomeric SMILES>
C1=CC=C2C(=C1)C=C(N2)C(=O)N/N=C/C3=CC=C(C=C3)Cl

>  <IC50 (�M)>
2.3

>  <pIC50>
5.64

$$$$
C_074
Actelion Java MolfileCreator 1.0

 28 31  0  0  1  0  0  0  0  0999 V2000
    1.6998    0.3246   -0.0000 O   0  0  0  0  0  0  0  0  0  0  0  0
    0.9426   -0.3286   -0.0000 C   0  0  0  0  0  0  0  0  0  0  0  0
    2.6441   -0.0046   -0.0000 C   0  0  0  0  0  0  0  0  0  0  0  0
    0.0000   -0.0000   -0.0000 C   0  0  0  0  0  0  0  0  0  0  0  0
    3.4013    0.6485   -0.0000 C   0  0  0  0  0  0  0  0  0  0  0  0
    0.0259    1.0809   -0.0000 C   0  0  0  0  0  0  0  0  0  0  0  0
   -0.7362   -0.2873   -0.0000 C   0  0  0  0  0  0  0  0  0  0  0  0
   -0.5707   -0.7610   -0.0000 C   0  0  0  0  0  0  0  0  0  0  0  0
    4.3455    0.3193   -0.0000 C   0  0  0  0  0  0  0  0  0  0  0  0
   -0.9858    1.4182   -0.0000 C   0  0  0  0  0  0  0  0  0  0  0  0
   -1.9086    0.0490   -0.0000 C   0  0  0  0  0  0  0  0  0  0  0  0
   -1.5475   -0.4783   -0.0000 C   0  0  0  0  0  0  0  0  0  0  0  0
    5.1028    0.9725   -0.0000 C   0  0  0  0  0  0  0  0  0  0  0  0
   -1.8493    1.0839   -0.0000 C   0  0  0  0  0  0  0  0  0  0  0  0
   -1.4427    0.7662   -0.0000 C   0  0  0  0  0  0  0  0  0  0  0  0
   -2.4559   -0.7350   -0.0000 C   0  0  0  0  0  0  0  0  0  0  0  0
    6.0470    0.6433   -0.0000 C   0  0  0  0  0  0  0  0  0  0  0  0
    6.8042    1.2965   -0.0000 N   0  0  0  0  0  0  0  0  0  0  0  0
    7.7485    0.9673   -0.0000 C   0  0  0  0  0  0  0  0  0  0  0  0
    6.6172    2.2788   -0.0000 C   0  0  0  0  0  0  0  0  0  0  0  0
    8.5057    1.6204   -0.0000 C   0  0  0  0  0  0  0  0  0  0  0  0
    7.9355   -0.0151   -0.0000 C   0  0  0  0  0  0  0  0  0  0  0  0
    7.3744    2.9320   -0.0000 C   0  0  0  0  0  0  0  0  0  0  0  0
    9.4500    1.2912   -0.0000 O   0  0  0  0  0  0  0  0  0  0  0  0
    8.3187    2.6028   -0.0000 C   0  0  0  0  0  0  0  0  0  0  0  0
    8.8798   -0.3443   -0.0000 O   0  0  0  0  0  0  0  0  0  0  0  0
    7.1874    3.9143   -0.0000 O   0  0  0  0  0  0  0  0  0  0  0  0
    9.0759    3.2559   -0.0000 O   0  0  0  0  0  0  0  0  0  0  0  0
  1  2  1  0  0  0  0
  1  3  1  0  0  0  0
  2  4  1  0  0  0  0
  3  5  1  0  0  0  0
  4  6  1  0  0  0  0
  4  7  1  0  0  0  0
  4  8  1  0  0  0  0
  5  9  1  0  0  0  0
  6 10  1  0  0  0  0
  7 11  1  0  0  0  0
  8 12  1  0  0  0  0
  9 13  1  0  0  0  0
 10 14  1  0  0  0  0
 10 15  1  0  0  0  0
 11 16  1  0  0  0  0
 13 17  1  0  0  0  0
 17 18  1  0  0  0  0
 18 19  1  0  0  0  0
 18 20  1  0  0  0  0
 19 21  1  0  0  0  0
 19 22  1  1  0  0  0
 20 23  1  0  0  0  0
 21 24  1  6  0  0  0
 21 25  1  0  0  0  0
 22 26  1  0  0  0  0
 23 27  1  6  0  0  0
 25 28  1  1  0  0  0
 11 14  1  0  0  0  0
 12 15  1  0  0  0  0
 12 16  1  0  0  0  0
 23 25  1  0  0  0  0
M  END
>  <S/N>
71

>  <Compound ID>
C_074

>  <PubChem CID>
9822159

>  <Isomeric SMILES>
C1[C@@H]([C@H]([C@@H]([C@H](N1CCCCCOCC23CC4CC(C2)CC(C4)C3)CO)O)O)O

>  <IC50 (�M)>
3

>  <pIC50>
5.52

$$$$
C_075
Actelion Java MolfileCreator 1.0

 26 28  0  0  1  0  0  0  0  0999 V2000
    6.4937   -2.4013   -0.0000 O   0  0  0  0  0  0  0  0  0  0  0  0
    5.0083   -2.6365   -0.0000 C   0  0  0  0  0  0  0  0  0  0  0  0
    3.9448   -1.5731   -0.0000 O   0  0  0  0  0  0  0  0  0  0  0  0
    4.3255   -3.9765   -0.0000 C   0  0  0  0  0  0  0  0  0  0  0  0
    2.6048   -2.2559   -0.0000 C   0  0  0  0  0  0  0  0  0  0  0  0
    5.0083   -5.3165   -0.0000 O   0  0  0  0  0  0  0  0  0  0  0  0
    2.8401   -3.7413   -0.0000 C   0  0  0  0  0  0  0  0  0  0  0  0
    2.6048   -0.7520   -0.0000 C   0  0  0  0  0  0  0  0  0  0  0  0
    1.2649   -1.5731   -0.0000 C   0  0  0  0  0  0  0  0  0  0  0  0
    1.7767   -4.8047   -0.0000 C   0  0  0  0  0  0  0  0  0  0  0  0
    1.3024    0.0000   -0.0000 O   0  0  0  0  0  0  0  0  0  0  0  0
    3.9073    0.0000   -0.0000 O   0  0  0  0  0  0  0  0  0  0  0  0
    0.0036   -2.3922   -0.0000 C   0  0  0  0  0  0  0  0  0  0  0  0
    0.3427   -4.4556   -0.0000 C   0  0  0  0  0  0  0  0  0  0  0  0
    2.1659   -6.2573   -0.0000 C   0  0  0  0  0  0  0  0  0  0  0  0
    5.2097   -0.7520   -0.0000 C   0  0  0  0  0  0  0  0  0  0  0  0
    0.0450   -3.8136   -0.0000 C   0  0  0  0  0  0  0  0  0  0  0  0
   -1.3364   -1.7094   -0.0000 C   0  0  0  0  0  0  0  0  0  0  0  0
   -0.7394   -5.4789   -0.0000 C   0  0  0  0  0  0  0  0  0  0  0  0
    1.1025   -7.3208   -0.0000 C   0  0  0  0  0  0  0  0  0  0  0  0
   -1.1790   -4.7131   -0.0000 C   0  0  0  0  0  0  0  0  0  0  0  0
   -2.5977   -2.5285   -0.0000 C   0  0  0  0  0  0  0  0  0  0  0  0
   -0.3502   -6.9315   -0.0000 C   0  0  0  0  0  0  0  0  0  0  0  0
   -2.5190   -4.0304   -0.0000 C   0  0  0  0  0  0  0  0  0  0  0  0
   -1.4136   -7.9950   -0.0000 O   0  0  0  0  0  0  0  0  0  0  0  0
   -3.7803   -4.8495   -0.0000 O   0  0  0  0  0  0  0  0  0  0  0  0
  1  2  2  0  0  0  0
  2  3  1  0  0  0  0
  2  4  1  0  0  0  0
  3  5  1  0  0  0  0
  4  6  1  0  0  0  0
  4  7  2  0  0  0  0
  5  8  1  0  0  0  0
  5  9  1  1  0  0  0
  7 10  1  0  0  0  0
  8 11  2  0  0  0  0
  8 12  1  0  0  0  0
  9 13  1  0  0  0  0
 10 14  2  0  0  0  0
 10 15  1  0  0  0  0
 12 16  1  0  0  0  0
 13 17  2  0  0  0  0
 13 18  1  0  0  0  0
 14 19  1  0  0  0  0
 15 20  2  0  0  0  0
 17 21  1  0  0  0  0
 18 22  2  0  0  0  0
 19 23  2  0  0  0  0
 21 24  2  0  0  0  0
 23 25  1  0  0  0  0
 24 26  1  0  0  0  0
  5  7  1  0  0  0  0
 20 23  1  0  0  0  0
 22 24  1  0  0  0  0
M  END
>  <S/N>
72

>  <Compound ID>
C_075

>  <PubChem CID>
10405953

>  <Isomeric SMILES>
COC(=O)[C@]1(C(=C(C(=O)O1)O)C2=CC=C(C=C2)O)CC3=CC=C(C=C3)O

>  <IC50 (�M)>
85.13

>  <pIC50>
4.07

$$$$
C_076
Actelion Java MolfileCreator 1.0

 27 29  0  0  0  0  0  0  0  0999 V2000
    0.8660   -0.0000   -0.0000 O   0  0  0  0  0  0  0  0  0  0  0  0
    1.7321   -0.5000   -0.0000 C   0  0  0  0  0  0  0  0  0  0  0  0
    0.0000   -0.5000   -0.0000 C   0  0  0  0  0  0  0  0  0  0  0  0
    1.7321   -1.5000   -0.0000 C   0  0  0  0  0  0  0  0  0  0  0  0
    2.5981   -0.0000   -0.0000 C   0  0  0  0  0  0  0  0  0  0  0  0
    0.8660   -2.0000   -0.0000 O   0  0  0  0  0  0  0  0  0  0  0  0
    2.5981   -2.0000   -0.0000 C   0  0  0  0  0  0  0  0  0  0  0  0
    2.5981    1.0000   -0.0000 C   0  0  0  0  0  0  0  0  0  0  0  0
    3.4641   -0.5000   -0.0000 C   0  0  0  0  0  0  0  0  0  0  0  0
    3.4641   -1.5000   -0.0000 C   0  0  0  0  0  0  0  0  0  0  0  0
    2.5981   -3.0000   -0.0000 C   0  0  0  0  0  0  0  0  0  0  0  0
    3.4641    1.5000   -0.0000 C   0  0  0  0  0  0  0  0  0  0  0  0
    1.7321    1.5000   -0.0000 C   0  0  0  0  0  0  0  0  0  0  0  0
    4.3301   -2.0000   -0.0000 O   0  0  0  0  0  0  0  0  0  0  0  0
    1.7321   -3.5000   -0.0000 C   0  0  0  0  0  0  0  0  0  0  0  0
    3.4641   -3.5000   -0.0000 C   0  0  0  0  0  0  0  0  0  0  0  0
    3.4641    2.5000   -0.0000 C   0  0  0  0  0  0  0  0  0  0  0  0
    1.7321    2.5000   -0.0000 C   0  0  0  0  0  0  0  0  0  0  0  0
    5.1962   -1.5000   -0.0000 C   0  0  0  0  0  0  0  0  0  0  0  0
    1.7321   -4.5000   -0.0000 C   0  0  0  0  0  0  0  0  0  0  0  0
    3.4641   -4.5000   -0.0000 C   0  0  0  0  0  0  0  0  0  0  0  0
    4.3301    3.0000   -0.0000 O   0  0  0  0  0  0  0  0  0  0  0  0
    2.5981    3.0000   -0.0000 C   0  0  0  0  0  0  0  0  0  0  0  0
    0.8660   -5.0000   -0.0000 O   0  0  0  0  0  0  0  0  0  0  0  0
    2.5981   -5.0000   -0.0000 C   0  0  0  0  0  0  0  0  0  0  0  0
    2.5981    4.0000   -0.0000 O   0  0  0  0  0  0  0  0  0  0  0  0
    2.5981   -6.0000   -0.0000 O   0  0  0  0  0  0  0  0  0  0  0  0
  1  2  1  0  0  0  0
  1  3  1  0  0  0  0
  2  4  2  0  0  0  0
  2  5  1  0  0  0  0
  4  6  1  0  0  0  0
  4  7  1  0  0  0  0
  5  8  1  0  0  0  0
  5  9  2  0  0  0  0
  7 10  2  0  0  0  0
  7 11  1  0  0  0  0
  8 12  2  0  0  0  0
  8 13  1  0  0  0  0
 10 14  1  0  0  0  0
 11 15  2  0  0  0  0
 11 16  1  0  0  0  0
 12 17  1  0  0  0  0
 13 18  2  0  0  0  0
 14 19  1  0  0  0  0
 15 20  1  0  0  0  0
 16 21  2  0  0  0  0
 17 22  1  0  0  0  0
 17 23  2  0  0  0  0
 20 24  1  0  0  0  0
 20 25  2  0  0  0  0
 23 26  1  0  0  0  0
 25 27  1  0  0  0  0
  9 10  1  0  0  0  0
 18 23  1  0  0  0  0
 21 25  1  0  0  0  0
M  END
>  <S/N>
73

>  <Compound ID>
C_076

>  <PubChem CID>
10429220

>  <Isomeric SMILES>
COC1=C(C(=C(C(=C1)C2=CC(=C(C=C2)O)O)OC)O)C3=CC(=C(C=C3)O)O

>  <IC50 (�M)>
14

>  <pIC50>
4.85

$$$$
C_077
Actelion Java MolfileCreator 1.0

 22 24  0  0  0  0  0  0  0  0999 V2000
    2.5981    1.0000   -0.0000 O   0  0  0  0  0  0  0  0  0  0  0  0
    2.5981    0.0000   -0.0000 C   0  0  0  0  0  0  0  0  0  0  0  0
    1.7321   -0.5000   -0.0000 C   0  0  0  0  0  0  0  0  0  0  0  0
    3.4641   -0.5000   -0.0000 C   0  0  0  0  0  0  0  0  0  0  0  0
    0.8660   -0.0000   -0.0000 C   0  0  0  0  0  0  0  0  0  0  0  0
    1.7321   -1.5000   -0.0000 C   0  0  0  0  0  0  0  0  0  0  0  0
    4.3301    0.0000   -0.0000 C   0  0  0  0  0  0  0  0  0  0  0  0
    3.4641   -1.5000   -0.0000 C   0  0  0  0  0  0  0  0  0  0  0  0
    0.0000   -0.5000   -0.0000 C   0  0  0  0  0  0  0  0  0  0  0  0
    2.5981   -2.0000   -0.0000 C   0  0  0  0  0  0  0  0  0  0  0  0
    5.1962   -0.5000   -0.0000 C   0  0  0  0  0  0  0  0  0  0  0  0
   -0.8660    0.0000   -0.0000 C   0  0  0  0  0  0  0  0  0  0  0  0
   -0.0000   -1.5000   -0.0000 C   0  0  0  0  0  0  0  0  0  0  0  0
    6.0622    0.0000   -0.0000 C   0  0  0  0  0  0  0  0  0  0  0  0
    5.1962   -1.5000   -0.0000 C   0  0  0  0  0  0  0  0  0  0  0  0
   -1.7321   -0.5000   -0.0000 C   0  0  0  0  0  0  0  0  0  0  0  0
   -0.8660   -2.0000   -0.0000 C   0  0  0  0  0  0  0  0  0  0  0  0
    6.9282   -0.5000   -0.0000 C   0  0  0  0  0  0  0  0  0  0  0  0
    6.0622   -2.0000   -0.0000 C   0  0  0  0  0  0  0  0  0  0  0  0
   -1.7321   -1.5000   -0.0000 C   0  0  0  0  0  0  0  0  0  0  0  0
    6.9282   -1.5000   -0.0000 C   0  0  0  0  0  0  0  0  0  0  0  0
   -2.5981   -2.0000   -0.0000 O   0  0  0  0  0  0  0  0  0  0  0  0
  1  2  2  0  0  0  0
  2  3  1  0  0  0  0
  2  4  1  0  0  0  0
  3  5  2  0  0  0  0
  3  6  1  0  0  0  0
  4  7  2  0  0  0  0
  4  8  1  0  0  0  0
  5  9  1  0  0  0  0
  6 10  1  0  0  0  0
  7 11  1  0  0  0  0
  9 12  2  0  0  0  0
  9 13  1  0  0  0  0
 11 14  2  0  0  0  0
 11 15  1  0  0  0  0
 12 16  1  0  0  0  0
 13 17  2  0  0  0  0
 14 18  1  0  0  0  0
 15 19  2  0  0  0  0
 16 20  2  0  0  0  0
 18 21  2  0  0  0  0
 20 22  1  0  0  0  0
  8 10  1  0  0  0  0
 17 20  1  0  0  0  0
 19 21  1  0  0  0  0
M  END
>  <S/N>
74

>  <Compound ID>
C_077

>  <PubChem CID>
10589581

>  <Isomeric SMILES>
C1C/C(=C\C2=CC=CC=C2)/C(=O)/C(=C/C3=CC=C(C=C3)O)/C1

>  <IC50 (�M)>
42.3

>  <pIC50>
4.37

$$$$
C_078
Actelion Java MolfileCreator 1.0

 28 30  0  0  0  0  0  0  0  0999 V2000
    5.1962   -3.5000   -0.0000 O   0  0  0  0  0  0  0  0  0  0  0  0
    4.3301   -3.0000   -0.0000 C   0  0  0  0  0  0  0  0  0  0  0  0
    4.3301   -2.0000   -0.0000 C   0  0  0  0  0  0  0  0  0  0  0  0
    3.4641   -3.5000   -0.0000 C   0  0  0  0  0  0  0  0  0  0  0  0
    3.4641   -1.5000   -0.0000 C   0  0  0  0  0  0  0  0  0  0  0  0
    5.1962   -1.5000   -0.0000 C   0  0  0  0  0  0  0  0  0  0  0  0
    2.5981   -3.0000   -0.0000 C   0  0  0  0  0  0  0  0  0  0  0  0
    3.4641   -4.5000   -0.0000 C   0  0  0  0  0  0  0  0  0  0  0  0
    2.5981   -2.0000   -0.0000 O   0  0  0  0  0  0  0  0  0  0  0  0
    3.4641   -0.5000   -0.0000 C   0  0  0  0  0  0  0  0  0  0  0  0
    6.0622   -2.0000   -0.0000 O   0  0  0  0  0  0  0  0  0  0  0  0
    5.1962   -0.5000   -0.0000 C   0  0  0  0  0  0  0  0  0  0  0  0
    1.7321   -3.5000   -0.0000 C   0  0  0  0  0  0  0  0  0  0  0  0
    2.5981   -5.0000   -0.0000 C   0  0  0  0  0  0  0  0  0  0  0  0
    4.3301   -0.0000   -0.0000 C   0  0  0  0  0  0  0  0  0  0  0  0
    2.5981   -0.0000   -0.0000 C   0  0  0  0  0  0  0  0  0  0  0  0
    6.0622    0.0000   -0.0000 C   0  0  0  0  0  0  0  0  0  0  0  0
    1.7321   -4.5000   -0.0000 C   0  0  0  0  0  0  0  0  0  0  0  0
    2.5981   -6.0000   -0.0000 O   0  0  0  0  0  0  0  0  0  0  0  0
    4.3301    1.0000   -0.0000 O   0  0  0  0  0  0  0  0  0  0  0  0
    1.7321   -0.5000   -0.0000 C   0  0  0  0  0  0  0  0  0  0  0  0
    6.0622    1.0000   -0.0000 C   0  0  0  0  0  0  0  0  0  0  0  0
    0.8660   -0.0000   -0.0000 C   0  0  0  0  0  0  0  0  0  0  0  0
    6.9282    1.5000   -0.0000 C   0  0  0  0  0  0  0  0  0  0  0  0
    0.8660    1.0000   -0.0000 C   0  0  0  0  0  0  0  0  0  0  0  0
    0.0000   -0.5000   -0.0000 C   0  0  0  0  0  0  0  0  0  0  0  0
    7.7942    1.0000   -0.0000 C   0  0  0  0  0  0  0  0  0  0  0  0
    6.9282    2.5000   -0.0000 C   0  0  0  0  0  0  0  0  0  0  0  0
  1  2  2  0  0  0  0
  2  3  1  0  0  0  0
  2  4  1  0  0  0  0
  3  5  2  0  0  0  0
  3  6  1  0  0  0  0
  4  7  2  0  0  0  0
  4  8  1  0  0  0  0
  5  9  1  0  0  0  0
  5 10  1  0  0  0  0
  6 11  1  0  0  0  0
  6 12  2  0  0  0  0
  7 13  1  0  0  0  0
  8 14  2  0  0  0  0
 10 15  2  0  0  0  0
 10 16  1  0  0  0  0
 12 17  1  0  0  0  0
 13 18  2  0  0  0  0
 14 19  1  0  0  0  0
 15 20  1  0  0  0  0
 16 21  1  0  0  0  0
 17 22  1  0  0  0  0
 21 23  2  0  0  0  0
 22 24  2  0  0  0  0
 23 25  1  0  0  0  0
 23 26  1  0  0  0  0
 24 27  1  0  0  0  0
 24 28  1  0  0  0  0
  7  9  1  0  0  0  0
 12 15  1  0  0  0  0
 14 18  1  0  0  0  0
M  END
>  <S/N>
75

>  <Compound ID>
C_078

>  <PubChem CID>
10643491

>  <Isomeric SMILES>
CC(=CCC1=C(C(=C2C(=C1O)C(=O)C3=C(O2)C=CC(=C3)O)CC=C(C)C)O)C

>  <IC50 (�M)>
25.5

>  <pIC50>
4.59

$$$$
C_079
Actelion Java MolfileCreator 1.0

 16 18  0  0  0  0  0  0  0  0999 V2000
    3.8971    1.5000   -0.0000 N   0  0  0  0  0  0  0  0  0  0  0  0
    2.5981    2.2500   -0.0000 C   0  0  0  0  0  0  0  0  0  0  0  0
    3.8971   -0.0000   -0.0000 C   0  0  0  0  0  0  0  0  0  0  0  0
    1.2990    1.5000   -0.0000 C   0  0  0  0  0  0  0  0  0  0  0  0
    2.5981   -0.7500   -0.0000 C   0  0  0  0  0  0  0  0  0  0  0  0
    1.2990   -0.0000   -0.0000 C   0  0  0  0  0  0  0  0  0  0  0  0
    0.0000   -0.7500   -0.0000 C   0  0  0  0  0  0  0  0  0  0  0  0
   -1.3703   -0.1399   -0.0000 N   0  0  0  0  0  0  0  0  0  0  0  0
   -0.1568   -2.2418   -0.0000 N   0  0  0  0  0  0  0  0  0  0  0  0
   -2.3740   -1.2546   -0.0000 C   0  0  0  0  0  0  0  0  0  0  0  0
   -1.6240   -2.5537   -0.0000 C   0  0  0  0  0  0  0  0  0  0  0  0
   -3.8740   -1.2546   -0.0000 C   0  0  0  0  0  0  0  0  0  0  0  0
   -2.3740   -3.8527   -0.0000 C   0  0  0  0  0  0  0  0  0  0  0  0
   -4.6240   -2.5537   -0.0000 C   0  0  0  0  0  0  0  0  0  0  0  0
   -4.6240    0.0444   -0.0000 C   0  0  0  0  0  0  0  0  0  0  0  0
   -3.8740   -3.8527   -0.0000 C   0  0  0  0  0  0  0  0  0  0  0  0
  1  2  2  0  0  0  0
  1  3  1  0  0  0  0
  2  4  1  0  0  0  0
  3  5  2  0  0  0  0
  4  6  2  0  0  0  0
  6  7  1  0  0  0  0
  7  8  2  0  0  0  0
  7  9  1  0  0  0  0
  8 10  1  0  0  0  0
  9 11  1  0  0  0  0
 10 12  2  0  0  0  0
 11 13  2  0  0  0  0
 12 14  1  0  0  0  0
 12 15  1  0  0  0  0
 13 16  1  0  0  0  0
  5  6  1  0  0  0  0
 10 11  1  0  0  0  0
 14 16  2  0  0  0  0
M  END
>  <S/N>
76

>  <Compound ID>
C_079

>  <PubChem CID>
10656015

>  <Isomeric SMILES>
CC1=C2C(=CC=C1)NC(=N2)C3=CC=NC=C3

>  <IC50 (�M)>
5.3

>  <pIC50>
5.28

$$$$
C_080
Actelion Java MolfileCreator 1.0

 17 19  0  0  0  0  0  0  0  0999 V2000
    0.0000    2.2500   -0.0000 Cl  0  0  0  0  0  0  0  0  0  0  0  0
    1.2990    1.5000   -0.0000 C   0  0  0  0  0  0  0  0  0  0  0  0
    1.2990   -0.0000   -0.0000 C   0  0  0  0  0  0  0  0  0  0  0  0
    2.5981    2.2500   -0.0000 C   0  0  0  0  0  0  0  0  0  0  0  0
    0.0000   -0.7500   -0.0000 C   0  0  0  0  0  0  0  0  0  0  0  0
    2.5981   -0.7500   -0.0000 C   0  0  0  0  0  0  0  0  0  0  0  0
    3.8971    1.5000   -0.0000 C   0  0  0  0  0  0  0  0  0  0  0  0
   -1.3703   -0.1399   -0.0000 N   0  0  0  0  0  0  0  0  0  0  0  0
   -0.1568   -2.2418   -0.0000 N   0  0  0  0  0  0  0  0  0  0  0  0
    3.8971   -0.0000   -0.0000 C   0  0  0  0  0  0  0  0  0  0  0  0
   -2.3740   -1.2546   -0.0000 C   0  0  0  0  0  0  0  0  0  0  0  0
   -1.6240   -2.5537   -0.0000 C   0  0  0  0  0  0  0  0  0  0  0  0
   -3.8740   -1.2546   -0.0000 C   0  0  0  0  0  0  0  0  0  0  0  0
   -2.3740   -3.8527   -0.0000 C   0  0  0  0  0  0  0  0  0  0  0  0
   -4.6240   -2.5537   -0.0000 C   0  0  0  0  0  0  0  0  0  0  0  0
   -4.6240    0.0444   -0.0000 C   0  0  0  0  0  0  0  0  0  0  0  0
   -3.8740   -3.8527   -0.0000 C   0  0  0  0  0  0  0  0  0  0  0  0
  1  2  1  0  0  0  0
  2  3  2  0  0  0  0
  2  4  1  0  0  0  0
  3  5  1  0  0  0  0
  3  6  1  0  0  0  0
  4  7  2  0  0  0  0
  5  8  2  0  0  0  0
  5  9  1  0  0  0  0
  6 10  2  0  0  0  0
  8 11  1  0  0  0  0
  9 12  1  0  0  0  0
 11 13  2  0  0  0  0
 12 14  2  0  0  0  0
 13 15  1  0  0  0  0
 13 16  1  0  0  0  0
 14 17  1  0  0  0  0
  7 10  1  0  0  0  0
 11 12  1  0  0  0  0
 15 17  2  0  0  0  0
M  END
>  <S/N>
77

>  <Compound ID>
C_080

>  <PubChem CID>
11160865

>  <Isomeric SMILES>
CC1=C2C(=CC=C1)NC(=N2)C3=CC=CC=C3Cl

>  <IC50 (�M)>
5.3

>  <pIC50>
5.28

$$$$
C_081
Actelion Java MolfileCreator 1.0

 19 21  0  0  0  0  0  0  0  0999 V2000
    2.5981   -0.7500   -0.0000 O   0  0  0  0  0  0  0  0  0  0  0  0
    1.2990   -0.0000   -0.0000 N   0  0  0  0  0  0  0  0  0  0  0  0
    1.2990    1.5000   -0.0000 O   0  0  0  0  0  0  0  0  0  0  0  0
    0.0000   -0.7500   -0.0000 C   0  0  0  0  0  0  0  0  0  0  0  0
   -1.2990    0.0000   -0.0000 C   0  0  0  0  0  0  0  0  0  0  0  0
   -0.0000   -2.2500   -0.0000 C   0  0  0  0  0  0  0  0  0  0  0  0
   -1.2990    1.5000   -0.0000 C   0  0  0  0  0  0  0  0  0  0  0  0
   -2.5981   -0.7500   -0.0000 C   0  0  0  0  0  0  0  0  0  0  0  0
   -1.2990   -3.0000   -0.0000 C   0  0  0  0  0  0  0  0  0  0  0  0
   -0.0855    2.3817   -0.0000 N   0  0  0  0  0  0  0  0  0  0  0  0
   -2.5126    2.3817   -0.0000 N   0  0  0  0  0  0  0  0  0  0  0  0
   -2.5981   -2.2500   -0.0000 C   0  0  0  0  0  0  0  0  0  0  0  0
   -0.5490    3.8083   -0.0000 C   0  0  0  0  0  0  0  0  0  0  0  0
   -2.0490    3.8083   -0.0000 C   0  0  0  0  0  0  0  0  0  0  0  0
    0.2010    5.1073   -0.0000 C   0  0  0  0  0  0  0  0  0  0  0  0
   -2.7990    5.1073   -0.0000 C   0  0  0  0  0  0  0  0  0  0  0  0
   -0.5490    6.4063   -0.0000 C   0  0  0  0  0  0  0  0  0  0  0  0
    1.7010    5.1073   -0.0000 C   0  0  0  0  0  0  0  0  0  0  0  0
   -2.0490    6.4063   -0.0000 C   0  0  0  0  0  0  0  0  0  0  0  0
  1  2  2  0  0  0  0
  2  3  1  0  0  0  0
  2  4  1  0  0  0  0
  4  5  2  0  0  0  0
  4  6  1  0  0  0  0
  5  7  1  0  0  0  0
  5  8  1  0  0  0  0
  6  9  2  0  0  0  0
  7 10  2  0  0  0  0
  7 11  1  0  0  0  0
  8 12  2  0  0  0  0
 10 13  1  0  0  0  0
 11 14  1  0  0  0  0
 13 15  2  0  0  0  0
 14 16  2  0  0  0  0
 15 17  1  0  0  0  0
 15 18  1  0  0  0  0
 16 19  1  0  0  0  0
  9 12  1  0  0  0  0
 13 14  1  0  0  0  0
 17 19  2  0  0  0  0
M  CHG  2   2   1   3  -1
M  END
>  <S/N>
78

>  <Compound ID>
C_081

>  <PubChem CID>
11218984

>  <Isomeric SMILES>
CC1=C2C(=CC=C1)NC(=N2)C3=CC=CC=C3[N+](=O)[O-]

>  <IC50 (�M)>
5.3

>  <pIC50>
5.28

$$$$
C_082
Actelion Java MolfileCreator 1.0

 17 17  0  0  1  0  0  0  0  0999 V2000
    6.0622   -0.0000   -0.0000 O   0  0  0  0  0  0  0  0  0  0  0  0
    5.1962   -0.5000   -0.0000 C   0  0  0  0  0  0  0  0  0  0  0  0
    4.3301   -0.0000   -0.0000 C   0  0  0  0  0  0  0  0  0  0  0  0
    5.1962   -1.5000   -0.0000 C   0  0  0  0  0  0  0  0  0  0  0  0
    4.3301    1.0000   -0.0000 O   0  0  0  0  0  0  0  0  0  0  0  0
    3.4641   -0.5000   -0.0000 C   0  0  0  0  0  0  0  0  0  0  0  0
    6.0622   -2.0000   -0.0000 O   0  0  0  0  0  0  0  0  0  0  0  0
    4.3301   -2.0000   -0.0000 C   0  0  0  0  0  0  0  0  0  0  0  0
    2.5981   -0.0000   -0.0000 N   0  0  0  0  0  0  0  0  0  0  0  0
    3.4641   -1.5000   -0.0000 C   0  0  0  0  0  0  0  0  0  0  0  0
    4.3301   -3.0000   -0.0000 C   0  0  0  0  0  0  0  0  0  0  0  0
    1.7321   -0.5000   -0.0000 C   0  0  0  0  0  0  0  0  0  0  0  0
    5.1962   -3.5000   -0.0000 O   0  0  0  0  0  0  0  0  0  0  0  0
    1.7321   -1.5000   -0.0000 C   0  0  0  0  0  0  0  0  0  0  0  0
    0.8660   -0.0000   -0.0000 C   0  0  0  0  0  0  0  0  0  0  0  0
    2.5981   -2.0000   -0.0000 O   0  0  0  0  0  0  0  0  0  0  0  0
    0.0000   -0.5000   -0.0000 O   0  0  0  0  0  0  0  0  0  0  0  0
  2  1  1  1  0  0  0
  2  3  1  0  0  0  0
  2  4  1  0  0  0  0
  3  5  1  6  0  0  0
  3  6  1  0  0  0  0
  4  7  1  6  0  0  0
  4  8  1  0  0  0  0
  6  9  1  6  0  0  0
  6 10  1  0  0  0  0
  8 11  1  1  0  0  0
  9 12  1  0  0  0  0
 11 13  1  0  0  0  0
 12 14  1  0  0  0  0
 12 15  1  0  0  0  0
 14 16  1  0  0  0  0
 15 17  1  0  0  0  0
  8 10  1  0  0  0  0
M  END
>  <S/N>
79

>  <Compound ID>
C_082

>  <PubChem CID>
11630203

>  <Isomeric SMILES>
C1[C@@H]([C@H]([C@@H]([C@H]([C@H]1NC(CO)CO)O)O)O)CO

>  <IC50 (�M)>
0.55

>  <pIC50>
6.26

$$$$
C_083
Actelion Java MolfileCreator 1.0

 33 35  0  0  0  0  0  0  0  0999 V2000
    8.6603   -3.5000   -0.0000 O   0  0  0  0  0  0  0  0  0  0  0  0
    7.7942   -3.0000   -0.0000 C   0  0  0  0  0  0  0  0  0  0  0  0
    7.7942   -2.0000   -0.0000 C   0  0  0  0  0  0  0  0  0  0  0  0
    6.9282   -3.5000   -0.0000 C   0  0  0  0  0  0  0  0  0  0  0  0
    6.9282   -1.5000   -0.0000 C   0  0  0  0  0  0  0  0  0  0  0  0
    8.6603   -1.5000   -0.0000 C   0  0  0  0  0  0  0  0  0  0  0  0
    6.0622   -3.0000   -0.0000 C   0  0  0  0  0  0  0  0  0  0  0  0
    6.9282   -4.5000   -0.0000 C   0  0  0  0  0  0  0  0  0  0  0  0
    6.0622   -2.0000   -0.0000 O   0  0  0  0  0  0  0  0  0  0  0  0
    6.9282   -0.5000   -0.0000 C   0  0  0  0  0  0  0  0  0  0  0  0
    9.5263   -2.0000   -0.0000 O   0  0  0  0  0  0  0  0  0  0  0  0
    8.6603   -0.5000   -0.0000 C   0  0  0  0  0  0  0  0  0  0  0  0
    5.1962   -3.5000   -0.0000 C   0  0  0  0  0  0  0  0  0  0  0  0
    6.0622   -5.0000   -0.0000 C   0  0  0  0  0  0  0  0  0  0  0  0
    7.7942   -0.0000   -0.0000 C   0  0  0  0  0  0  0  0  0  0  0  0
    6.0622   -0.0000   -0.0000 C   0  0  0  0  0  0  0  0  0  0  0  0
    9.5263   -0.0000   -0.0000 C   0  0  0  0  0  0  0  0  0  0  0  0
    5.1962   -4.5000   -0.0000 C   0  0  0  0  0  0  0  0  0  0  0  0
    6.0622   -6.0000   -0.0000 O   0  0  0  0  0  0  0  0  0  0  0  0
    7.7942    1.0000   -0.0000 O   0  0  0  0  0  0  0  0  0  0  0  0
    5.1962   -0.5000   -0.0000 C   0  0  0  0  0  0  0  0  0  0  0  0
    9.5263    1.0000   -0.0000 C   0  0  0  0  0  0  0  0  0  0  0  0
    4.3301   -0.0000   -0.0000 C   0  0  0  0  0  0  0  0  0  0  0  0
   10.3923    1.5000   -0.0000 C   0  0  0  0  0  0  0  0  0  0  0  0
    3.4641   -0.5000   -0.0000 C   0  0  0  0  0  0  0  0  0  0  0  0
    4.3301    1.0000   -0.0000 C   0  0  0  0  0  0  0  0  0  0  0  0
   11.2583    1.0000   -0.0000 C   0  0  0  0  0  0  0  0  0  0  0  0
   10.3923    2.5000   -0.0000 C   0  0  0  0  0  0  0  0  0  0  0  0
    2.5981   -0.0000   -0.0000 C   0  0  0  0  0  0  0  0  0  0  0  0
    1.7321   -0.5000   -0.0000 C   0  0  0  0  0  0  0  0  0  0  0  0
    0.8660   -0.0000   -0.0000 C   0  0  0  0  0  0  0  0  0  0  0  0
    0.8660    1.0000   -0.0000 C   0  0  0  0  0  0  0  0  0  0  0  0
    0.0000   -0.5000   -0.0000 C   0  0  0  0  0  0  0  0  0  0  0  0
  1  2  2  0  0  0  0
  2  3  1  0  0  0  0
  2  4  1  0  0  0  0
  3  5  2  0  0  0  0
  3  6  1  0  0  0  0
  4  7  2  0  0  0  0
  4  8  1  0  0  0  0
  5  9  1  0  0  0  0
  5 10  1  0  0  0  0
  6 11  1  0  0  0  0
  6 12  2  0  0  0  0
  7 13  1  0  0  0  0
  8 14  2  0  0  0  0
 10 15  2  0  0  0  0
 10 16  1  0  0  0  0
 12 17  1  0  0  0  0
 13 18  2  0  0  0  0
 14 19  1  0  0  0  0
 15 20  1  0  0  0  0
 16 21  1  0  0  0  0
 17 22  1  0  0  0  0
 21 23  2  0  0  0  0
 22 24  2  0  0  0  0
 23 25  1  0  0  0  0
 23 26  1  0  0  0  0
 24 27  1  0  0  0  0
 24 28  1  0  0  0  0
 25 29  1  0  0  0  0
 29 30  1  0  0  0  0
 30 31  2  0  0  0  0
 31 32  1  0  0  0  0
 31 33  1  0  0  0  0
  7  9  1  0  0  0  0
 12 15  1  0  0  0  0
 14 18  1  0  0  0  0
M  END
>  <S/N>
80

>  <Compound ID>
C_083

>  <PubChem CID>
11633740

>  <Isomeric SMILES>
CC(=CCC/C(=C/CC1=C2C(=C(C(=C1O)CC=C(C)C)O)C(=O)C3=C(O2)C=CC(=C3)O)/C)C

>  <IC50 (�M)>
17.4

>  <pIC50>
4.76

$$$$
C_084
Actelion Java MolfileCreator 1.0

 33 36  0  0  1  0  0  0  0  0999 V2000
    5.5793   -2.0773   -0.0000 O   0  0  0  0  0  0  0  0  0  0  0  0
    5.2674   -0.6101   -0.0000 C   0  0  0  0  0  0  0  0  0  0  0  0
    6.2711    0.5046   -0.0000 O   0  0  0  0  0  0  0  0  0  0  0  0
    3.8971   -0.0000   -0.0000 C   0  0  0  0  0  0  0  0  0  0  0  0
    5.5211    1.8037   -0.0000 C   0  0  0  0  0  0  0  0  0  0  0  0
    4.0539    1.4918   -0.0000 C   0  0  0  0  0  0  0  0  0  0  0  0
    2.5981   -0.7500   -0.0000 C   0  0  0  0  0  0  0  0  0  0  0  0
    6.1312    3.1740   -0.0000 C   0  0  0  0  0  0  0  0  0  0  0  0
    1.2990   -0.0000   -0.0000 C   0  0  0  0  0  0  0  0  0  0  0  0
    7.6230    3.3308   -0.0000 C   0  0  0  0  0  0  0  0  0  0  0  0
    0.0000   -0.7500   -0.0000 C   0  0  0  0  0  0  0  0  0  0  0  0
    8.2331    4.7011   -0.0000 C   0  0  0  0  0  0  0  0  0  0  0  0
    8.5047    2.1172   -0.0000 C   0  0  0  0  0  0  0  0  0  0  0  0
   -1.2990    0.0000   -0.0000 C   0  0  0  0  0  0  0  0  0  0  0  0
   -0.0000   -2.2500   -0.0000 C   0  0  0  0  0  0  0  0  0  0  0  0
    9.7249    4.8579   -0.0000 C   0  0  0  0  0  0  0  0  0  0  0  0
    9.9965    2.2740   -0.0000 C   0  0  0  0  0  0  0  0  0  0  0  0
   -1.2990    1.5000   -0.0000 C   0  0  0  0  0  0  0  0  0  0  0  0
   -2.5981   -0.7500   -0.0000 C   0  0  0  0  0  0  0  0  0  0  0  0
   -1.2990   -3.0000   -0.0000 C   0  0  0  0  0  0  0  0  0  0  0  0
    1.2990   -3.0000   -0.0000 C   0  0  0  0  0  0  0  0  0  0  0  0
    1.2990   -1.5000   -0.0000 C   0  0  0  0  0  0  0  0  0  0  0  0
   10.6066    3.6443   -0.0000 C   0  0  0  0  0  0  0  0  0  0  0  0
   -2.5981   -2.2500   -0.0000 C   0  0  0  0  0  0  0  0  0  0  0  0
   -1.2990   -4.5000   -0.0000 C   0  0  0  0  0  0  0  0  0  0  0  0
    1.2990   -4.5000   -0.0000 C   0  0  0  0  0  0  0  0  0  0  0  0
   12.0984    3.8011   -0.0000 O   0  0  0  0  0  0  0  0  0  0  0  0
   -0.0000   -5.2500   -0.0000 C   0  0  0  0  0  0  0  0  0  0  0  0
   -2.5981   -5.2500   -0.0000 C   0  0  0  0  0  0  0  0  0  0  0  0
   -1.2990   -6.0000   -0.0000 C   0  0  0  0  0  0  0  0  0  0  0  0
   12.9800    2.5876   -0.0000 C   0  0  0  0  0  0  0  0  0  0  0  0
   -0.0000   -6.7500   -0.0000 O   0  0  0  0  0  0  0  0  0  0  0  0
   -3.8971   -4.5000   -0.0000 O   0  0  0  0  0  0  0  0  0  0  0  0
  1  2  2  0  0  0  0
  2  3  1  0  0  0  0
  2  4  1  0  0  0  0
  3  5  1  0  0  0  0
  4  6  2  0  0  0  0
  4  7  1  0  0  0  0
  5  8  2  0  0  0  0
  7  9  2  0  0  0  0
  8 10  1  0  0  0  0
 11  9  1  1  0  0  0
 10 12  2  0  0  0  0
 10 13  1  0  0  0  0
 11 14  1  0  0  0  0
 11 15  1  0  0  0  0
 12 16  1  0  0  0  0
 13 17  2  0  0  0  0
 14 18  2  0  0  0  0
 14 19  1  0  0  0  0
 15 20  1  0  0  0  0
 15 21  1  0  0  0  0
 15 22  1  1  0  0  0
 16 23  2  0  0  0  0
 19 24  1  0  0  0  0
 20 25  1  0  0  0  0
 21 26  1  0  0  0  0
 23 27  1  0  0  0  0
 25 28  1  0  0  0  0
 25 29  1  0  0  0  0
 25 30  1  6  0  0  0
 27 31  1  0  0  0  0
 28 32  1  1  0  0  0
 29 33  1  0  0  0  0
  5  6  1  0  0  0  0
 17 23  1  0  0  0  0
 20 24  1  1  0  0  0
 26 28  1  0  0  0  0
M  END
>  <S/N>
81

>  <Compound ID>
C_084

>  <PubChem CID>
11640963

>  <Isomeric SMILES>
C[C@@]12CC[C@H]([C@@]([C@H]1CCC(=C)[C@H]2/C=C/C3=C/C(=C/C4=CC=C(C=C4)OC)/OC3=O)(C)CO)O

>  <IC50 (�M)>
16

>  <pIC50>
4.8

$$$$
C_085
Actelion Java MolfileCreator 1.0

 16 16  0  0  1  0  0  0  0  0999 V2000
    4.3301   -0.0000   -0.0000 S   0  0  0  0  0  0  0  0  0  0  0  0
    5.2437   -0.4067   -0.0000 C   0  0  0  0  0  0  0  0  0  0  0  0
    4.4347    0.9945   -0.0000 C   0  0  0  0  0  0  0  0  0  0  0  0
    3.4641   -0.5000   -0.0000 C   0  0  0  0  0  0  0  0  0  0  0  0
    5.9128    0.3364   -0.0000 C   0  0  0  0  0  0  0  0  0  0  0  0
    5.4516   -1.3849   -0.0000 C   0  0  0  0  0  0  0  0  0  0  0  0
    5.4128    1.2024   -0.0000 C   0  0  0  0  0  0  0  0  0  0  0  0
    2.5981   -0.0000   -0.0000 C   0  0  0  0  0  0  0  0  0  0  0  0
    6.9073    0.2319   -0.0000 O   0  0  0  0  0  0  0  0  0  0  0  0
    6.4026   -1.6939   -0.0000 O   0  0  0  0  0  0  0  0  0  0  0  0
    5.8195    2.1160   -0.0000 O   0  0  0  0  0  0  0  0  0  0  0  0
    2.5981    1.0000   -0.0000 O   0  0  0  0  0  0  0  0  0  0  0  0
    1.7321   -0.5000   -0.0000 C   0  0  0  0  0  0  0  0  0  0  0  0
    1.7321   -1.5000   -0.0000 O   0  0  0  0  0  0  0  0  0  0  0  0
    0.8660   -0.0000   -0.0000 C   0  0  0  0  0  0  0  0  0  0  0  0
    0.0000   -0.5000   -0.0000 O   0  0  0  0  0  0  0  0  0  0  0  0
  1  2  1  0  0  0  0
  1  3  1  0  0  0  0
  1  4  1  0  0  0  0
  2  5  1  0  0  0  0
  2  6  1  1  0  0  0
  3  7  1  0  0  0  0
  4  8  1  0  0  0  0
  5  9  1  6  0  0  0
  6 10  1  0  0  0  0
  7 11  1  1  0  0  0
  8 12  1  6  0  0  0
  8 13  1  0  0  0  0
 13 14  1  1  0  0  0
 13 15  1  0  0  0  0
 15 16  1  0  0  0  0
  5  7  1  0  0  0  0
M  CHG  1   1   1
M  END
>  <S/N>
82

>  <Compound ID>
C_085

>  <PubChem CID>
11748894

>  <Isomeric SMILES>
C1[C@H]([C@@H]([C@H]([S+]1C[C@H]([C@H](CO)O)O)CO)O)O

>  <IC50 (�M)>
9

>  <pIC50>
5.05

$$$$
C_086
Actelion Java MolfileCreator 1.0

 35 37  0  0  0  0  0  0  0  0999 V2000
    7.7942   -2.2500   -0.0000 O   0  0  0  0  0  0  0  0  0  0  0  0
    9.0933   -3.0000   -0.0000 C   0  0  0  0  0  0  0  0  0  0  0  0
    9.0933   -4.5000   -0.0000 C   0  0  0  0  0  0  0  0  0  0  0  0
   10.3923   -2.2500   -0.0000 C   0  0  0  0  0  0  0  0  0  0  0  0
    7.7942   -5.2500   -0.0000 C   0  0  0  0  0  0  0  0  0  0  0  0
   10.3923   -5.2500   -0.0000 C   0  0  0  0  0  0  0  0  0  0  0  0
   11.6913   -3.0000   -0.0000 C   0  0  0  0  0  0  0  0  0  0  0  0
   10.3923   -0.7500   -0.0000 C   0  0  0  0  0  0  0  0  0  0  0  0
    6.4952   -4.5000   -0.0000 O   0  0  0  0  0  0  0  0  0  0  0  0
    7.7942   -6.7500   -0.0000 C   0  0  0  0  0  0  0  0  0  0  0  0
   11.6913   -4.5000   -0.0000 O   0  0  0  0  0  0  0  0  0  0  0  0
   10.3923   -6.7500   -0.0000 C   0  0  0  0  0  0  0  0  0  0  0  0
   12.9904   -2.2500   -0.0000 C   0  0  0  0  0  0  0  0  0  0  0  0
   11.6913    0.0000   -0.0000 C   0  0  0  0  0  0  0  0  0  0  0  0
    9.0933   -0.0000   -0.0000 C   0  0  0  0  0  0  0  0  0  0  0  0
    9.0933   -7.5000   -0.0000 C   0  0  0  0  0  0  0  0  0  0  0  0
    6.4952   -7.5000   -0.0000 C   0  0  0  0  0  0  0  0  0  0  0  0
   12.9904   -0.7500   -0.0000 C   0  0  0  0  0  0  0  0  0  0  0  0
   11.6913    1.5000   -0.0000 O   0  0  0  0  0  0  0  0  0  0  0  0
    7.7942   -0.7500   -0.0000 C   0  0  0  0  0  0  0  0  0  0  0  0
    9.0933   -9.0000   -0.0000 O   0  0  0  0  0  0  0  0  0  0  0  0
    6.4952   -9.0000   -0.0000 C   0  0  0  0  0  0  0  0  0  0  0  0
   14.2894   -0.0000   -0.0000 O   0  0  0  0  0  0  0  0  0  0  0  0
   10.3923    2.2500   -0.0000 C   0  0  0  0  0  0  0  0  0  0  0  0
    6.4952   -0.0000   -0.0000 C   0  0  0  0  0  0  0  0  0  0  0  0
    5.1962   -9.7500   -0.0000 C   0  0  0  0  0  0  0  0  0  0  0  0
    5.1962   -0.7500   -0.0000 C   0  0  0  0  0  0  0  0  0  0  0  0
    6.4952    1.5000   -0.0000 C   0  0  0  0  0  0  0  0  0  0  0  0
    3.8971   -9.0000   -0.0000 C   0  0  0  0  0  0  0  0  0  0  0  0
    5.1962  -11.2500   -0.0000 C   0  0  0  0  0  0  0  0  0  0  0  0
    3.8971   -0.0000   -0.0000 C   0  0  0  0  0  0  0  0  0  0  0  0
    2.5981   -0.7500   -0.0000 C   0  0  0  0  0  0  0  0  0  0  0  0
    1.2990   -0.0000   -0.0000 C   0  0  0  0  0  0  0  0  0  0  0  0
    1.2990    1.5000   -0.0000 C   0  0  0  0  0  0  0  0  0  0  0  0
    0.0000   -0.7500   -0.0000 C   0  0  0  0  0  0  0  0  0  0  0  0
  1  2  2  0  0  0  0
  2  3  1  0  0  0  0
  2  4  1  0  0  0  0
  3  5  2  0  0  0  0
  3  6  1  0  0  0  0
  4  7  2  0  0  0  0
  4  8  1  0  0  0  0
  5  9  1  0  0  0  0
  5 10  1  0  0  0  0
  6 11  1  0  0  0  0
  6 12  2  0  0  0  0
  7 13  1  0  0  0  0
  8 14  2  0  0  0  0
  8 15  1  0  0  0  0
 10 16  2  0  0  0  0
 10 17  1  0  0  0  0
 13 18  2  0  0  0  0
 14 19  1  0  0  0  0
 15 20  1  0  0  0  0
 16 21  1  0  0  0  0
 17 22  1  0  0  0  0
 18 23  1  0  0  0  0
 19 24  1  0  0  0  0
 20 25  2  0  0  0  0
 22 26  2  0  0  0  0
 25 27  1  0  0  0  0
 25 28  1  0  0  0  0
 26 29  1  0  0  0  0
 26 30  1  0  0  0  0
 27 31  1  0  0  0  0
 31 32  1  0  0  0  0
 32 33  2  0  0  0  0
 33 34  1  0  0  0  0
 33 35  1  0  0  0  0
  7 11  1  0  0  0  0
 12 16  1  0  0  0  0
 14 18  1  0  0  0  0
M  END
>  <S/N>
83

>  <Compound ID>
C_086

>  <PubChem CID>
11754819

>  <Isomeric SMILES>
CC(=CCC/C(=C/CC1=C(C(=CC2=C1C(=O)C3=C(O2)C=C(C(=C3O)CC=C(C)C)O)O)OC)/C)C

>  <IC50 (�M)>
37.4

>  <pIC50>
4.43

$$$$
C_087
Actelion Java MolfileCreator 1.0

 29 34  0  0  0  0  0  0  0  0999 V2000
    7.4851    1.8187   -0.0000 Br  0  0  0  0  0  0  0  0  0  0  0  0
    5.9726    1.8187   -0.0000 C   0  0  0  0  0  0  0  0  0  0  0  0
    5.2163    0.5088   -0.0000 C   0  0  0  0  0  0  0  0  0  0  0  0
    5.2163    3.1286   -0.0000 C   0  0  0  0  0  0  0  0  0  0  0  0
    3.7038    0.5088   -0.0000 C   0  0  0  0  0  0  0  0  0  0  0  0
    3.7038    3.1286   -0.0000 C   0  0  0  0  0  0  0  0  0  0  0  0
    2.9475    1.8187   -0.0000 C   0  0  0  0  0  0  0  0  0  0  0  0
    2.6917   -0.6152   -0.0000 C   0  0  0  0  0  0  0  0  0  0  0  0
    1.4680    1.5043   -0.0000 N   0  0  0  0  0  0  0  0  0  0  0  0
    1.3099   -0.0000   -0.0000 C   0  0  0  0  0  0  0  0  0  0  0  0
    3.0062   -2.0947   -0.0000 C   0  0  0  0  0  0  0  0  0  0  0  0
    1.5162   -1.5671   -0.0000 C   0  0  0  0  0  0  0  0  0  0  0  0
    0.0768   -0.5996   -0.0000 O   0  0  0  0  0  0  0  0  0  0  0  0
    4.3879   -2.7099   -0.0000 C   0  0  0  0  0  0  0  0  0  0  0  0
    2.1512   -3.2744   -0.0000 C   0  0  0  0  0  0  0  0  0  0  0  0
    0.0518   -1.2655   -0.0000 C   0  0  0  0  0  0  0  0  0  0  0  0
    1.5168   -3.0497   -0.0000 C   0  0  0  0  0  0  0  0  0  0  0  0
    4.2298   -4.2142   -0.0000 C   0  0  0  0  0  0  0  0  0  0  0  0
    5.7697   -2.0947   -0.0000 C   0  0  0  0  0  0  0  0  0  0  0  0
    2.7503   -4.5286   -0.0000 N   0  0  0  0  0  0  0  0  0  0  0  0
   -0.7686   -2.4441   -0.0000 C   0  0  0  0  0  0  0  0  0  0  0  0
   -0.6315    0.1721   -0.0000 C   0  0  0  0  0  0  0  0  0  0  0  0
    0.1833   -3.6196   -0.0000 N   0  0  0  0  0  0  0  0  0  0  0  0
    5.4535   -5.1032   -0.0000 C   0  0  0  0  0  0  0  0  0  0  0  0
    6.9934   -2.9838   -0.0000 C   0  0  0  0  0  0  0  0  0  0  0  0
   -2.2791   -2.3650   -0.0000 C   0  0  0  0  0  0  0  0  0  0  0  0
   -2.1419    0.2512   -0.0000 C   0  0  0  0  0  0  0  0  0  0  0  0
    6.8353   -4.4880   -0.0000 C   0  0  0  0  0  0  0  0  0  0  0  0
   -2.9657   -1.0173   -0.0000 C   0  0  0  0  0  0  0  0  0  0  0  0
  1  2  1  0  0  0  0
  2  3  2  0  0  0  0
  2  4  1  0  0  0  0
  3  5  1  0  0  0  0
  4  6  2  0  0  0  0
  5  7  2  0  0  0  0
  5  8  1  0  0  0  0
  7  9  1  0  0  0  0
  8 10  1  0  0  0  0
  8 11  1  0  0  0  0
  8 12  1  0  0  0  0
 10 13  2  0  0  0  0
 11 14  1  0  0  0  0
 11 15  2  0  0  0  0
 12 16  1  0  0  0  0
 12 17  2  0  0  0  0
 14 18  2  0  0  0  0
 14 19  1  0  0  0  0
 15 20  1  0  0  0  0
 16 21  2  0  0  0  0
 16 22  1  0  0  0  0
 17 23  1  0  0  0  0
 18 24  1  0  0  0  0
 19 25  2  0  0  0  0
 21 26  1  0  0  0  0
 22 27  2  0  0  0  0
 24 28  2  0  0  0  0
 26 29  2  0  0  0  0
  6  7  1  0  0  0  0
  9 10  1  0  0  0  0
 18 20  1  0  0  0  0
 21 23  1  0  0  0  0
 25 28  1  0  0  0  0
 27 29  1  0  0  0  0
M  END
>  <S/N>
84

>  <Compound ID>
C_087

>  <PubChem CID>
11775074

>  <Isomeric SMILES>
C1=CC=C2C(=C1)C(=CN2)C3(C4=C(C=CC(=C4)Br)NC3=O)C5=CNC6=CC=CC=C65

>  <IC50 (�M)>
5.9

>  <pIC50>
5.23

$$$$
C_088
Actelion Java MolfileCreator 1.0

 35 39  0  0  0  0  0  0  0  0999 V2000
    7.0397    4.8566   -0.0000 Cl  0  0  0  0  0  0  0  0  0  0  0  0
    6.6330    3.9431   -0.0000 C   0  0  0  0  0  0  0  0  0  0  0  0
    5.6385    3.8385   -0.0000 C   0  0  0  0  0  0  0  0  0  0  0  0
    7.2208    3.1341   -0.0000 C   0  0  0  0  0  0  0  0  0  0  0  0
    5.2318    2.9250   -0.0000 C   0  0  0  0  0  0  0  0  0  0  0  0
    6.8141    2.2205   -0.0000 C   0  0  0  0  0  0  0  0  0  0  0  0
    5.8195    2.1160   -0.0000 C   0  0  0  0  0  0  0  0  0  0  0  0
    5.4128    1.2024   -0.0000 C   0  0  0  0  0  0  0  0  0  0  0  0
    4.4347    0.9945   -0.0000 N   0  0  0  0  0  0  0  0  0  0  0  0
    5.9128    0.3364   -0.0000 C   0  0  0  0  0  0  0  0  0  0  0  0
    4.3301   -0.0000   -0.0000 C   0  0  0  0  0  0  0  0  0  0  0  0
    5.2437   -0.4067   -0.0000 S   0  0  0  0  0  0  0  0  0  0  0  0
    3.4641   -0.5000   -0.0000 N   0  0  0  0  0  0  0  0  0  0  0  0
    2.5981   -0.0000   -0.0000 C   0  0  0  0  0  0  0  0  0  0  0  0
    2.5981    1.0000   -0.0000 O   0  0  0  0  0  0  0  0  0  0  0  0
    1.7321   -0.5000   -0.0000 C   0  0  0  0  0  0  0  0  0  0  0  0
    0.8660   -0.0000   -0.0000 S   0  0  0  0  0  0  0  0  0  0  0  0
    0.0000   -0.5000   -0.0000 C   0  0  0  0  0  0  0  0  0  0  0  0
   -0.8660    0.0000   -0.0000 N   0  0  0  0  0  0  0  0  0  0  0  0
   -0.0000   -1.5000   -0.0000 N   0  0  0  0  0  0  0  0  0  0  0  0
   -1.7321   -0.5000   -0.0000 N   0  0  0  0  0  0  0  0  0  0  0  0
   -0.8660   -2.0000   -0.0000 C   0  0  0  0  0  0  0  0  0  0  0  0
   -1.7321   -1.5000   -0.0000 C   0  0  0  0  0  0  0  0  0  0  0  0
   -0.8660   -3.0000   -0.0000 C   0  0  0  0  0  0  0  0  0  0  0  0
   -2.5981   -2.0000   -0.0000 C   0  0  0  0  0  0  0  0  0  0  0  0
   -1.7321   -3.5000   -0.0000 C   0  0  0  0  0  0  0  0  0  0  0  0
   -0.0000   -3.5000   -0.0000 C   0  0  0  0  0  0  0  0  0  0  0  0
   -3.4641   -1.5000   -0.0000 C   0  0  0  0  0  0  0  0  0  0  0  0
   -2.5981   -3.0000   -0.0000 C   0  0  0  0  0  0  0  0  0  0  0  0
   -1.7321   -4.5000   -0.0000 C   0  0  0  0  0  0  0  0  0  0  0  0
   -0.0000   -4.5000   -0.0000 C   0  0  0  0  0  0  0  0  0  0  0  0
   -4.3301   -2.0000   -0.0000 C   0  0  0  0  0  0  0  0  0  0  0  0
   -3.4641   -3.5000   -0.0000 C   0  0  0  0  0  0  0  0  0  0  0  0
   -0.8660   -5.0000   -0.0000 C   0  0  0  0  0  0  0  0  0  0  0  0
   -4.3301   -3.0000   -0.0000 C   0  0  0  0  0  0  0  0  0  0  0  0
  1  2  1  0  0  0  0
  2  3  2  0  0  0  0
  2  4  1  0  0  0  0
  3  5  1  0  0  0  0
  4  6  2  0  0  0  0
  5  7  2  0  0  0  0
  7  8  1  0  0  0  0
  8  9  1  0  0  0  0
  8 10  2  0  0  0  0
  9 11  2  0  0  0  0
 10 12  1  0  0  0  0
 11 13  1  0  0  0  0
 13 14  1  0  0  0  0
 14 15  2  0  0  0  0
 14 16  1  0  0  0  0
 16 17  1  0  0  0  0
 17 18  1  0  0  0  0
 18 19  2  0  0  0  0
 18 20  1  0  0  0  0
 19 21  1  0  0  0  0
 20 22  2  0  0  0  0
 21 23  2  0  0  0  0
 22 24  1  0  0  0  0
 23 25  1  0  0  0  0
 24 26  2  0  0  0  0
 24 27  1  0  0  0  0
 25 28  2  0  0  0  0
 25 29  1  0  0  0  0
 26 30  1  0  0  0  0
 27 31  2  0  0  0  0
 28 32  1  0  0  0  0
 29 33  2  0  0  0  0
 30 34  2  0  0  0  0
 32 35  2  0  0  0  0
  6  7  1  0  0  0  0
 11 12  1  0  0  0  0
 22 23  1  0  0  0  0
 31 34  1  0  0  0  0
 33 35  1  0  0  0  0
M  END
>  <S/N>
85

>  <Compound ID>
C_088

>  <PubChem CID>
13397330

>  <Isomeric SMILES>
C1=CC=C(C=C1)C2=C(N=NC(=N2)SCC(=O)NC3=NC(=CS3)C4=CC=C(C=C4)Cl)C5=CC=CC=C5

>  <IC50 (�M)>
2.8

>  <pIC50>
5.55

$$$$
C_089
Actelion Java MolfileCreator 1.0

 23 25  0  0  0  0  0  0  0  0999 V2000
    5.1962   -1.5000   -0.0000 O   0  0  0  0  0  0  0  0  0  0  0  0
    5.1962   -0.5000   -0.0000 C   0  0  0  0  0  0  0  0  0  0  0  0
    6.0622   -0.0000   -0.0000 O   0  0  0  0  0  0  0  0  0  0  0  0
    4.3301   -0.0000   -0.0000 C   0  0  0  0  0  0  0  0  0  0  0  0
    6.0622    1.0000   -0.0000 C   0  0  0  0  0  0  0  0  0  0  0  0
    3.4641   -0.5000   -0.0000 C   0  0  0  0  0  0  0  0  0  0  0  0
    4.3301    1.0000   -0.0000 C   0  0  0  0  0  0  0  0  0  0  0  0
    5.1962    1.5000   -0.0000 C   0  0  0  0  0  0  0  0  0  0  0  0
    6.9282    1.5000   -0.0000 C   0  0  0  0  0  0  0  0  0  0  0  0
    3.4641   -1.5000   -0.0000 O   0  0  0  0  0  0  0  0  0  0  0  0
    2.5981   -0.0000   -0.0000 N   0  0  0  0  0  0  0  0  0  0  0  0
    5.1962    2.5000   -0.0000 C   0  0  0  0  0  0  0  0  0  0  0  0
    6.9282    2.5000   -0.0000 C   0  0  0  0  0  0  0  0  0  0  0  0
    1.7321   -0.5000   -0.0000 N   0  0  0  0  0  0  0  0  0  0  0  0
    6.0622    3.0000   -0.0000 C   0  0  0  0  0  0  0  0  0  0  0  0
    0.8660   -0.0000   -0.0000 C   0  0  0  0  0  0  0  0  0  0  0  0
    0.0000   -0.5000   -0.0000 C   0  0  0  0  0  0  0  0  0  0  0  0
   -0.8660    0.0000   -0.0000 C   0  0  0  0  0  0  0  0  0  0  0  0
   -0.0000   -1.5000   -0.0000 C   0  0  0  0  0  0  0  0  0  0  0  0
   -1.7321   -0.5000   -0.0000 C   0  0  0  0  0  0  0  0  0  0  0  0
   -0.8660   -2.0000   -0.0000 C   0  0  0  0  0  0  0  0  0  0  0  0
   -1.7321   -1.5000   -0.0000 C   0  0  0  0  0  0  0  0  0  0  0  0
   -2.5981   -2.0000   -0.0000 C   0  0  0  0  0  0  0  0  0  0  0  0
  1  2  2  0  0  0  0
  2  3  1  0  0  0  0
  2  4  1  0  0  0  0
  3  5  1  0  0  0  0
  4  6  1  0  0  0  0
  4  7  2  0  0  0  0
  5  8  2  0  0  0  0
  5  9  1  0  0  0  0
  6 10  2  0  0  0  0
  6 11  1  0  0  0  0
  8 12  1  0  0  0  0
  9 13  2  0  0  0  0
 11 14  1  0  0  0  0
 12 15  2  0  0  0  0
 14 16  2  0  0  0  0
 16 17  1  0  0  0  0
 17 18  2  0  0  0  0
 17 19  1  0  0  0  0
 18 20  1  0  0  0  0
 19 21  2  0  0  0  0
 20 22  2  0  0  0  0
 22 23  1  0  0  0  0
  7  8  1  0  0  0  0
 13 15  1  0  0  0  0
 21 22  1  0  0  0  0
M  END
>  <S/N>
86

>  <Compound ID>
C_089

>  <PubChem CID>
14356503

>  <Isomeric SMILES>
CC1=CC=C(C=C1)/C=N/NC(=O)C2=CC3=CC=CC=C3OC2=O

>  <IC50 (�M)>
1.1

>  <pIC50>
5.96

$$$$
C_090
Actelion Java MolfileCreator 1.0

 24 26  0  0  0  0  0  0  0  0999 V2000
    5.1962   -1.5000   -0.0000 O   0  0  0  0  0  0  0  0  0  0  0  0
    5.1962   -0.5000   -0.0000 C   0  0  0  0  0  0  0  0  0  0  0  0
    6.0622   -0.0000   -0.0000 O   0  0  0  0  0  0  0  0  0  0  0  0
    4.3301   -0.0000   -0.0000 C   0  0  0  0  0  0  0  0  0  0  0  0
    6.0622    1.0000   -0.0000 C   0  0  0  0  0  0  0  0  0  0  0  0
    3.4641   -0.5000   -0.0000 C   0  0  0  0  0  0  0  0  0  0  0  0
    4.3301    1.0000   -0.0000 C   0  0  0  0  0  0  0  0  0  0  0  0
    5.1962    1.5000   -0.0000 C   0  0  0  0  0  0  0  0  0  0  0  0
    6.9282    1.5000   -0.0000 C   0  0  0  0  0  0  0  0  0  0  0  0
    3.4641   -1.5000   -0.0000 O   0  0  0  0  0  0  0  0  0  0  0  0
    2.5981   -0.0000   -0.0000 N   0  0  0  0  0  0  0  0  0  0  0  0
    5.1962    2.5000   -0.0000 C   0  0  0  0  0  0  0  0  0  0  0  0
    6.9282    2.5000   -0.0000 C   0  0  0  0  0  0  0  0  0  0  0  0
    1.7321   -0.5000   -0.0000 N   0  0  0  0  0  0  0  0  0  0  0  0
    6.0622    3.0000   -0.0000 C   0  0  0  0  0  0  0  0  0  0  0  0
    0.8660   -0.0000   -0.0000 C   0  0  0  0  0  0  0  0  0  0  0  0
    0.0000   -0.5000   -0.0000 C   0  0  0  0  0  0  0  0  0  0  0  0
   -0.8660    0.0000   -0.0000 C   0  0  0  0  0  0  0  0  0  0  0  0
   -0.0000   -1.5000   -0.0000 C   0  0  0  0  0  0  0  0  0  0  0  0
   -1.7321   -0.5000   -0.0000 C   0  0  0  0  0  0  0  0  0  0  0  0
   -0.8660   -2.0000   -0.0000 C   0  0  0  0  0  0  0  0  0  0  0  0
   -1.7321   -1.5000   -0.0000 C   0  0  0  0  0  0  0  0  0  0  0  0
   -2.5981   -2.0000   -0.0000 O   0  0  0  0  0  0  0  0  0  0  0  0
   -2.5981   -3.0000   -0.0000 C   0  0  0  0  0  0  0  0  0  0  0  0
  1  2  2  0  0  0  0
  2  3  1  0  0  0  0
  2  4  1  0  0  0  0
  3  5  1  0  0  0  0
  4  6  1  0  0  0  0
  4  7  2  0  0  0  0
  5  8  2  0  0  0  0
  5  9  1  0  0  0  0
  6 10  2  0  0  0  0
  6 11  1  0  0  0  0
  8 12  1  0  0  0  0
  9 13  2  0  0  0  0
 11 14  1  0  0  0  0
 12 15  2  0  0  0  0
 14 16  2  0  0  0  0
 16 17  1  0  0  0  0
 17 18  2  0  0  0  0
 17 19  1  0  0  0  0
 18 20  1  0  0  0  0
 19 21  2  0  0  0  0
 20 22  2  0  0  0  0
 22 23  1  0  0  0  0
 23 24  1  0  0  0  0
  7  8  1  0  0  0  0
 13 15  1  0  0  0  0
 21 22  1  0  0  0  0
M  END
>  <S/N>
87

>  <Compound ID>
C_090

>  <PubChem CID>
14356507

>  <Isomeric SMILES>
COC1=CC=C(C=C1)/C=N/NC(=O)C2=CC3=CC=CC=C3OC2=O

>  <IC50 (�M)>
1.1

>  <pIC50>
5.96

$$$$
C_091
Actelion Java MolfileCreator 1.0

 26 29  0  0  1  0  0  0  0  0999 V2000
    9.0933   -3.0000   -0.0000 Cl  0  0  0  0  0  0  0  0  0  0  0  0
    7.7942   -2.2500   -0.0000 C   0  0  0  0  0  0  0  0  0  0  0  0
    7.7942   -0.7500   -0.0000 C   0  0  0  0  0  0  0  0  0  0  0  0
    6.4952   -3.0000   -0.0000 C   0  0  0  0  0  0  0  0  0  0  0  0
    6.4952    0.0000   -0.0000 C   0  0  0  0  0  0  0  0  0  0  0  0
    5.1962   -2.2500   -0.0000 C   0  0  0  0  0  0  0  0  0  0  0  0
    5.1962   -0.7500   -0.0000 C   0  0  0  0  0  0  0  0  0  0  0  0
    3.8971   -0.0000   -0.0000 C   0  0  0  0  0  0  0  0  0  0  0  0
    3.8971    1.5000   -0.0000 C   0  0  0  0  0  0  0  0  0  0  0  0
    2.5981   -0.7500   -0.0000 C   0  0  0  0  0  0  0  0  0  0  0  0
    5.1106    2.3817   -0.0000 C   0  0  0  0  0  0  0  0  0  0  0  0
    2.6836    2.3817   -0.0000 C   0  0  0  0  0  0  0  0  0  0  0  0
    1.2990   -0.0000   -0.0000 C   0  0  0  0  0  0  0  0  0  0  0  0
    4.6471    3.8083   -0.0000 C   0  0  0  0  0  0  0  0  0  0  0  0
    6.5779    2.0698   -0.0000 C   0  0  0  0  0  0  0  0  0  0  0  0
    3.1471    3.8083   -0.0000 N   0  0  0  0  0  0  0  0  0  0  0  0
    1.2990    1.5000   -0.0000 O   0  0  0  0  0  0  0  0  0  0  0  0
    0.0000   -0.7500   -0.0000 C   0  0  0  0  0  0  0  0  0  0  0  0
    5.6508    4.9230   -0.0000 C   0  0  0  0  0  0  0  0  0  0  0  0
    7.5816    3.1845   -0.0000 C   0  0  0  0  0  0  0  0  0  0  0  0
   -1.2990    0.0000   -0.0000 C   0  0  0  0  0  0  0  0  0  0  0  0
   -0.0000   -2.2500   -0.0000 C   0  0  0  0  0  0  0  0  0  0  0  0
    7.1180    4.6111   -0.0000 C   0  0  0  0  0  0  0  0  0  0  0  0
   -2.5981   -0.7500   -0.0000 C   0  0  0  0  0  0  0  0  0  0  0  0
   -1.2990   -3.0000   -0.0000 C   0  0  0  0  0  0  0  0  0  0  0  0
   -2.5981   -2.2500   -0.0000 C   0  0  0  0  0  0  0  0  0  0  0  0
  1  2  1  0  0  0  0
  2  3  2  0  0  0  0
  2  4  1  0  0  0  0
  3  5  1  0  0  0  0
  4  6  2  0  0  0  0
  5  7  2  0  0  0  0
  7  8  1  0  0  0  0
  8  9  1  0  0  0  0
  8 10  1  6  0  0  0
  9 11  1  0  0  0  0
  9 12  2  0  0  0  0
 10 13  1  0  0  0  0
 11 14  2  0  0  0  0
 11 15  1  0  0  0  0
 12 16  1  0  0  0  0
 13 17  2  0  0  0  0
 13 18  1  0  0  0  0
 14 19  1  0  0  0  0
 15 20  2  0  0  0  0
 18 21  2  0  0  0  0
 18 22  1  0  0  0  0
 19 23  2  0  0  0  0
 21 24  1  0  0  0  0
 22 25  2  0  0  0  0
 24 26  2  0  0  0  0
  6  7  1  0  0  0  0
 14 16  1  0  0  0  0
 20 23  1  0  0  0  0
 25 26  1  0  0  0  0
M  END
>  <S/N>
88

>  <Compound ID>
C_091

>  <PubChem CID>
16095414

>  <Isomeric SMILES>
C1=CC=C(C=C1)C(=O)C[C@@H](C2=CC=C(C=C2)Cl)C3=CNC4=CC=CC=C43

>  <IC50 (�M)>
4.3

>  <pIC50>
5.37

$$$$
C_092
Actelion Java MolfileCreator 1.0

 25 28  0  0  1  0  0  0  0  0999 V2000
    2.5981    1.0000   -0.0000 O   0  0  0  0  0  0  0  0  0  0  0  0
    2.5981   -0.0000   -0.0000 C   0  0  0  0  0  0  0  0  0  0  0  0
    3.4641   -0.5000   -0.0000 C   0  0  0  0  0  0  0  0  0  0  0  0
    1.7321   -0.5000   -0.0000 C   0  0  0  0  0  0  0  0  0  0  0  0
    4.3301    0.0000   -0.0000 C   0  0  0  0  0  0  0  0  0  0  0  0
    3.4641   -1.5000   -0.0000 C   0  0  0  0  0  0  0  0  0  0  0  0
    0.8660   -0.0000   -0.0000 C   0  0  0  0  0  0  0  0  0  0  0  0
    5.1962   -0.5000   -0.0000 C   0  0  0  0  0  0  0  0  0  0  0  0
    4.3301   -2.0000   -0.0000 C   0  0  0  0  0  0  0  0  0  0  0  0
    0.8660    1.0000   -0.0000 C   0  0  0  0  0  0  0  0  0  0  0  0
    0.0000   -0.5000   -0.0000 C   0  0  0  0  0  0  0  0  0  0  0  0
    5.1962   -1.5000   -0.0000 C   0  0  0  0  0  0  0  0  0  0  0  0
    1.7321    1.5000   -0.0000 C   0  0  0  0  0  0  0  0  0  0  0  0
    0.0000    1.5000   -0.0000 C   0  0  0  0  0  0  0  0  0  0  0  0
   -0.9135   -0.0933   -0.0000 C   0  0  0  0  0  0  0  0  0  0  0  0
   -0.1045   -1.4945   -0.0000 C   0  0  0  0  0  0  0  0  0  0  0  0
    1.7321    2.5000   -0.0000 C   0  0  0  0  0  0  0  0  0  0  0  0
    0.0000    2.5000   -0.0000 C   0  0  0  0  0  0  0  0  0  0  0  0
   -1.5827   -0.8364   -0.0000 C   0  0  0  0  0  0  0  0  0  0  0  0
   -1.2226    0.8578   -0.0000 C   0  0  0  0  0  0  0  0  0  0  0  0
   -1.0827   -1.7024   -0.0000 N   0  0  0  0  0  0  0  0  0  0  0  0
    0.8660    3.0000   -0.0000 C   0  0  0  0  0  0  0  0  0  0  0  0
   -2.5608   -0.6285   -0.0000 C   0  0  0  0  0  0  0  0  0  0  0  0
   -2.2007    1.0657   -0.0000 C   0  0  0  0  0  0  0  0  0  0  0  0
   -2.8698    0.3226   -0.0000 C   0  0  0  0  0  0  0  0  0  0  0  0
  1  2  2  0  0  0  0
  2  3  1  0  0  0  0
  2  4  1  0  0  0  0
  3  5  2  0  0  0  0
  3  6  1  0  0  0  0
  7  4  1  6  0  0  0
  5  8  1  0  0  0  0
  6  9  2  0  0  0  0
  7 10  1  0  0  0  0
  7 11  1  0  0  0  0
  8 12  2  0  0  0  0
 10 13  2  0  0  0  0
 10 14  1  0  0  0  0
 11 15  1  0  0  0  0
 11 16  2  0  0  0  0
 13 17  1  0  0  0  0
 14 18  2  0  0  0  0
 15 19  2  0  0  0  0
 15 20  1  0  0  0  0
 16 21  1  0  0  0  0
 17 22  2  0  0  0  0
 19 23  1  0  0  0  0
 20 24  2  0  0  0  0
 23 25  2  0  0  0  0
  9 12  1  0  0  0  0
 18 22  1  0  0  0  0
 19 21  1  0  0  0  0
 24 25  1  0  0  0  0
M  END
>  <S/N>
89

>  <Compound ID>
C_092

>  <PubChem CID>
16095545

>  <Isomeric SMILES>
C1=CC=C(C=C1)[C@H](CC(=O)C2=CC=CC=C2)C3=CNC4=CC=CC=C43

>  <IC50 (�M)>
4.3

>  <pIC50>
5.37

$$$$
C_093
Actelion Java MolfileCreator 1.0

 27 30  0  0  1  0  0  0  0  0999 V2000
    2.5981    1.0000   -0.0000 O   0  0  0  0  0  0  0  0  0  0  0  0
    2.5981   -0.0000   -0.0000 C   0  0  0  0  0  0  0  0  0  0  0  0
    3.4641   -0.5000   -0.0000 C   0  0  0  0  0  0  0  0  0  0  0  0
    1.7321   -0.5000   -0.0000 C   0  0  0  0  0  0  0  0  0  0  0  0
    4.3301    0.0000   -0.0000 C   0  0  0  0  0  0  0  0  0  0  0  0
    3.4641   -1.5000   -0.0000 C   0  0  0  0  0  0  0  0  0  0  0  0
    0.8660   -0.0000   -0.0000 C   0  0  0  0  0  0  0  0  0  0  0  0
    5.1962   -0.5000   -0.0000 C   0  0  0  0  0  0  0  0  0  0  0  0
    4.3301   -2.0000   -0.0000 C   0  0  0  0  0  0  0  0  0  0  0  0
    0.8660    1.0000   -0.0000 C   0  0  0  0  0  0  0  0  0  0  0  0
    0.0000   -0.5000   -0.0000 C   0  0  0  0  0  0  0  0  0  0  0  0
    5.1962   -1.5000   -0.0000 C   0  0  0  0  0  0  0  0  0  0  0  0
    1.7321    1.5000   -0.0000 C   0  0  0  0  0  0  0  0  0  0  0  0
   -0.0000    1.5000   -0.0000 C   0  0  0  0  0  0  0  0  0  0  0  0
   -0.9135   -0.0933   -0.0000 C   0  0  0  0  0  0  0  0  0  0  0  0
   -0.1045   -1.4945   -0.0000 C   0  0  0  0  0  0  0  0  0  0  0  0
    1.7321    2.5000   -0.0000 C   0  0  0  0  0  0  0  0  0  0  0  0
   -0.0000    2.5000   -0.0000 C   0  0  0  0  0  0  0  0  0  0  0  0
   -1.5827   -0.8364   -0.0000 C   0  0  0  0  0  0  0  0  0  0  0  0
   -1.2226    0.8578   -0.0000 C   0  0  0  0  0  0  0  0  0  0  0  0
   -1.0827   -1.7024   -0.0000 N   0  0  0  0  0  0  0  0  0  0  0  0
    0.8660    3.0000   -0.0000 C   0  0  0  0  0  0  0  0  0  0  0  0
   -2.5608   -0.6285   -0.0000 C   0  0  0  0  0  0  0  0  0  0  0  0
   -2.2007    1.0657   -0.0000 C   0  0  0  0  0  0  0  0  0  0  0  0
    0.8660    4.0000   -0.0000 O   0  0  0  0  0  0  0  0  0  0  0  0
   -2.8698    0.3226   -0.0000 C   0  0  0  0  0  0  0  0  0  0  0  0
   -0.0000    4.5000   -0.0000 C   0  0  0  0  0  0  0  0  0  0  0  0
  1  2  2  0  0  0  0
  2  3  1  0  0  0  0
  2  4  1  0  0  0  0
  3  5  2  0  0  0  0
  3  6  1  0  0  0  0
  7  4  1  6  0  0  0
  5  8  1  0  0  0  0
  6  9  2  0  0  0  0
  7 10  1  0  0  0  0
  7 11  1  0  0  0  0
  8 12  2  0  0  0  0
 10 13  2  0  0  0  0
 10 14  1  0  0  0  0
 11 15  1  0  0  0  0
 11 16  2  0  0  0  0
 13 17  1  0  0  0  0
 14 18  2  0  0  0  0
 15 19  2  0  0  0  0
 15 20  1  0  0  0  0
 16 21  1  0  0  0  0
 17 22  2  0  0  0  0
 19 23  1  0  0  0  0
 20 24  2  0  0  0  0
 22 25  1  0  0  0  0
 23 26  2  0  0  0  0
 25 27  1  0  0  0  0
  9 12  1  0  0  0  0
 18 22  1  0  0  0  0
 19 21  1  0  0  0  0
 24 26  1  0  0  0  0
M  END
>  <S/N>
90

>  <Compound ID>
C_093

>  <PubChem CID>
16095547

>  <Isomeric SMILES>
COC1=CC=C(C=C1)[C@H](CC(=O)C2=CC=CC=C2)C3=CNC4=CC=CC=C43

>  <IC50 (�M)>
4.3

>  <pIC50>
5.37

$$$$
C_094
Actelion Java MolfileCreator 1.0

 31 34  0  0  1  0  0  0  0  0999 V2000
    5.5793   -2.0773   -0.0000 O   0  0  0  0  0  0  0  0  0  0  0  0
    5.2674   -0.6101   -0.0000 C   0  0  0  0  0  0  0  0  0  0  0  0
    6.2711    0.5046   -0.0000 O   0  0  0  0  0  0  0  0  0  0  0  0
    3.8971   -0.0000   -0.0000 C   0  0  0  0  0  0  0  0  0  0  0  0
    5.5211    1.8037   -0.0000 C   0  0  0  0  0  0  0  0  0  0  0  0
    4.0539    1.4918   -0.0000 C   0  0  0  0  0  0  0  0  0  0  0  0
    2.5981   -0.7500   -0.0000 C   0  0  0  0  0  0  0  0  0  0  0  0
    6.1312    3.1740   -0.0000 C   0  0  0  0  0  0  0  0  0  0  0  0
    1.2990   -0.0000   -0.0000 C   0  0  0  0  0  0  0  0  0  0  0  0
    7.6230    3.3308   -0.0000 C   0  0  0  0  0  0  0  0  0  0  0  0
    0.0000   -0.7500   -0.0000 C   0  0  0  0  0  0  0  0  0  0  0  0
    8.2331    4.7011   -0.0000 C   0  0  0  0  0  0  0  0  0  0  0  0
    8.5047    2.1172   -0.0000 C   0  0  0  0  0  0  0  0  0  0  0  0
   -1.2990    0.0000   -0.0000 C   0  0  0  0  0  0  0  0  0  0  0  0
   -0.0000   -2.2500   -0.0000 C   0  0  0  0  0  0  0  0  0  0  0  0
    9.7249    4.8579   -0.0000 C   0  0  0  0  0  0  0  0  0  0  0  0
    9.9965    2.2740   -0.0000 C   0  0  0  0  0  0  0  0  0  0  0  0
   -1.2990    1.5000   -0.0000 C   0  0  0  0  0  0  0  0  0  0  0  0
   -2.5981   -0.7500   -0.0000 C   0  0  0  0  0  0  0  0  0  0  0  0
   -1.2990   -3.0000   -0.0000 C   0  0  0  0  0  0  0  0  0  0  0  0
    1.2990   -3.0000   -0.0000 C   0  0  0  0  0  0  0  0  0  0  0  0
    1.2990   -1.5000   -0.0000 C   0  0  0  0  0  0  0  0  0  0  0  0
   10.6066    3.6443   -0.0000 C   0  0  0  0  0  0  0  0  0  0  0  0
   -2.5981   -2.2500   -0.0000 C   0  0  0  0  0  0  0  0  0  0  0  0
   -1.2990   -4.5000   -0.0000 C   0  0  0  0  0  0  0  0  0  0  0  0
    1.2990   -4.5000   -0.0000 C   0  0  0  0  0  0  0  0  0  0  0  0
   -0.0000   -5.2500   -0.0000 C   0  0  0  0  0  0  0  0  0  0  0  0
   -2.5981   -5.2500   -0.0000 C   0  0  0  0  0  0  0  0  0  0  0  0
   -1.2990   -6.0000   -0.0000 C   0  0  0  0  0  0  0  0  0  0  0  0
   -0.0000   -6.7500   -0.0000 O   0  0  0  0  0  0  0  0  0  0  0  0
   -3.8971   -4.5000   -0.0000 O   0  0  0  0  0  0  0  0  0  0  0  0
  1  2  2  0  0  0  0
  2  3  1  0  0  0  0
  2  4  1  0  0  0  0
  3  5  1  0  0  0  0
  4  6  2  0  0  0  0
  4  7  1  0  0  0  0
  5  8  2  0  0  0  0
  7  9  2  0  0  0  0
  8 10  1  0  0  0  0
 11  9  1  1  0  0  0
 10 12  2  0  0  0  0
 10 13  1  0  0  0  0
 11 14  1  0  0  0  0
 11 15  1  0  0  0  0
 12 16  1  0  0  0  0
 13 17  2  0  0  0  0
 14 18  2  0  0  0  0
 14 19  1  0  0  0  0
 15 20  1  0  0  0  0
 15 21  1  0  0  0  0
 15 22  1  1  0  0  0
 16 23  2  0  0  0  0
 19 24  1  0  0  0  0
 20 25  1  0  0  0  0
 21 26  1  0  0  0  0
 25 27  1  0  0  0  0
 25 28  1  0  0  0  0
 25 29  1  6  0  0  0
 27 30  1  1  0  0  0
 28 31  1  0  0  0  0
  5  6  1  0  0  0  0
 17 23  1  0  0  0  0
 20 24  1  1  0  0  0
 26 27  1  0  0  0  0
M  END
>  <S/N>
91

>  <Compound ID>
C_094

>  <PubChem CID>
16121613

>  <Isomeric SMILES>
C[C@@]12CC[C@H]([C@@]([C@H]1CCC(=C)[C@H]2/C=C/C3=C/C(=C/C4=CC=CC=C4)/OC3=O)(C)CO)O

>  <IC50 (�M)>
58

>  <pIC50>
4.24

$$$$
C_095
Actelion Java MolfileCreator 1.0

 34 38  0  0  1  0  0  0  0  0999 V2000
    3.7195   -1.3849   -0.0000 O   0  0  0  0  0  0  0  0  0  0  0  0
    3.5116   -0.4067   -0.0000 C   0  0  0  0  0  0  0  0  0  0  0  0
    4.1808    0.3364   -0.0000 O   0  0  0  0  0  0  0  0  0  0  0  0
    2.5981   -0.0000   -0.0000 C   0  0  0  0  0  0  0  0  0  0  0  0
    3.6808    1.2024   -0.0000 C   0  0  0  0  0  0  0  0  0  0  0  0
    2.7026    0.9945   -0.0000 C   0  0  0  0  0  0  0  0  0  0  0  0
    1.7321   -0.5000   -0.0000 C   0  0  0  0  0  0  0  0  0  0  0  0
    4.0875    2.1160   -0.0000 C   0  0  0  0  0  0  0  0  0  0  0  0
    0.8660   -0.0000   -0.0000 C   0  0  0  0  0  0  0  0  0  0  0  0
    5.0820    2.2205   -0.0000 C   0  0  0  0  0  0  0  0  0  0  0  0
    0.0000   -0.5000   -0.0000 C   0  0  0  0  0  0  0  0  0  0  0  0
    5.4887    3.1341   -0.0000 C   0  0  0  0  0  0  0  0  0  0  0  0
    5.6698    1.4115   -0.0000 C   0  0  0  0  0  0  0  0  0  0  0  0
   -0.8660    0.0000   -0.0000 C   0  0  0  0  0  0  0  0  0  0  0  0
   -0.0000   -1.5000   -0.0000 C   0  0  0  0  0  0  0  0  0  0  0  0
    6.4833    3.2386   -0.0000 C   0  0  0  0  0  0  0  0  0  0  0  0
    6.6643    1.5160   -0.0000 C   0  0  0  0  0  0  0  0  0  0  0  0
   -0.8660    1.0000   -0.0000 C   0  0  0  0  0  0  0  0  0  0  0  0
   -1.7321   -0.5000   -0.0000 C   0  0  0  0  0  0  0  0  0  0  0  0
   -0.8660   -2.0000   -0.0000 C   0  0  0  0  0  0  0  0  0  0  0  0
    0.8660   -2.0000   -0.0000 C   0  0  0  0  0  0  0  0  0  0  0  0
    0.8660   -1.0000   -0.0000 C   0  0  0  0  0  0  0  0  0  0  0  0
    7.0711    4.0476   -0.0000 O   0  0  0  0  0  0  0  0  0  0  0  0
    7.0711    2.4296   -0.0000 C   0  0  0  0  0  0  0  0  0  0  0  0
   -1.7321   -1.5000   -0.0000 C   0  0  0  0  0  0  0  0  0  0  0  0
   -0.8660   -3.0000   -0.0000 C   0  0  0  0  0  0  0  0  0  0  0  0
    0.8660   -3.0000   -0.0000 C   0  0  0  0  0  0  0  0  0  0  0  0
    8.0221    3.7386   -0.0000 C   0  0  0  0  0  0  0  0  0  0  0  0
    8.0221    2.7386   -0.0000 O   0  0  0  0  0  0  0  0  0  0  0  0
   -0.0000   -3.5000   -0.0000 C   0  0  0  0  0  0  0  0  0  0  0  0
   -1.7321   -3.5000   -0.0000 C   0  0  0  0  0  0  0  0  0  0  0  0
   -0.8660   -4.0000   -0.0000 C   0  0  0  0  0  0  0  0  0  0  0  0
   -0.0000   -4.5000   -0.0000 O   0  0  0  0  0  0  0  0  0  0  0  0
   -2.5981   -3.0000   -0.0000 O   0  0  0  0  0  0  0  0  0  0  0  0
  1  2  2  0  0  0  0
  2  3  1  0  0  0  0
  2  4  1  0  0  0  0
  3  5  1  0  0  0  0
  4  6  2  0  0  0  0
  4  7  1  0  0  0  0
  5  8  2  0  0  0  0
  7  9  2  0  0  0  0
  8 10  1  0  0  0  0
 11  9  1  1  0  0  0
 10 12  2  0  0  0  0
 10 13  1  0  0  0  0
 11 14  1  0  0  0  0
 11 15  1  0  0  0  0
 12 16  1  0  0  0  0
 13 17  2  0  0  0  0
 14 18  2  0  0  0  0
 14 19  1  0  0  0  0
 15 20  1  0  0  0  0
 15 21  1  0  0  0  0
 15 22  1  1  0  0  0
 16 23  1  0  0  0  0
 16 24  2  0  0  0  0
 19 25  1  0  0  0  0
 20 26  1  0  0  0  0
 21 27  1  0  0  0  0
 23 28  1  0  0  0  0
 24 29  1  0  0  0  0
 26 30  1  0  0  0  0
 26 31  1  0  0  0  0
 26 32  1  6  0  0  0
 30 33  1  1  0  0  0
 31 34  1  0  0  0  0
  5  6  1  0  0  0  0
 17 24  1  0  0  0  0
 20 25  1  1  0  0  0
 27 30  1  0  0  0  0
 28 29  1  0  0  0  0
M  END
>  <S/N>
92

>  <Compound ID>
C_095

>  <PubChem CID>
16121614

>  <Isomeric SMILES>
C[C@@]12CC[C@H]([C@@]([C@H]1CCC(=C)[C@H]2/C=C/C3=C/C(=C/C4=CC5=C(C=C4)OCO5)/OC3=O)(C)CO)O

>  <IC50 (�M)>
82

>  <pIC50>
4.09

$$$$
C_096
Actelion Java MolfileCreator 1.0

 23 26  0  0  0  0  0  0  0  0999 V2000
    2.6456   -0.0933   -0.0000 S   0  0  0  0  0  0  0  0  0  0  0  0
    3.3147   -0.8364   -0.0000 C   0  0  0  0  0  0  0  0  0  0  0  0
    1.7321   -0.5000   -0.0000 C   0  0  0  0  0  0  0  0  0  0  0  0
    4.3092   -0.7319   -0.0000 O   0  0  0  0  0  0  0  0  0  0  0  0
    2.8147   -1.7024   -0.0000 N   0  0  0  0  0  0  0  0  0  0  0  0
    1.8366   -1.4945   -0.0000 C   0  0  0  0  0  0  0  0  0  0  0  0
    0.8660   -0.0000   -0.0000 C   0  0  0  0  0  0  0  0  0  0  0  0
    1.0934   -2.1637   -0.0000 O   0  0  0  0  0  0  0  0  0  0  0  0
    0.0000   -0.5000   -0.0000 C   0  0  0  0  0  0  0  0  0  0  0  0
   -0.8660    0.0000   -0.0000 C   0  0  0  0  0  0  0  0  0  0  0  0
   -0.0000   -1.5000   -0.0000 C   0  0  0  0  0  0  0  0  0  0  0  0
   -1.7321   -0.5000   -0.0000 C   0  0  0  0  0  0  0  0  0  0  0  0
   -0.8660   -2.0000   -0.0000 C   0  0  0  0  0  0  0  0  0  0  0  0
   -1.7321   -1.5000   -0.0000 C   0  0  0  0  0  0  0  0  0  0  0  0
   -2.5981   -2.0000   -0.0000 N   0  0  0  0  0  0  0  0  0  0  0  0
   -3.5116   -1.5933   -0.0000 C   0  0  0  0  0  0  0  0  0  0  0  0
   -2.7026   -2.9945   -0.0000 C   0  0  0  0  0  0  0  0  0  0  0  0
   -4.1808   -2.3364   -0.0000 C   0  0  0  0  0  0  0  0  0  0  0  0
   -3.8206   -0.6422   -0.0000 C   0  0  0  0  0  0  0  0  0  0  0  0
   -3.6808   -3.2024   -0.0000 N   0  0  0  0  0  0  0  0  0  0  0  0
   -5.1589   -2.1285   -0.0000 C   0  0  0  0  0  0  0  0  0  0  0  0
   -4.7988   -0.4343   -0.0000 C   0  0  0  0  0  0  0  0  0  0  0  0
   -5.4679   -1.1774   -0.0000 C   0  0  0  0  0  0  0  0  0  0  0  0
  1  2  1  0  0  0  0
  1  3  1  0  0  0  0
  2  4  2  0  0  0  0
  2  5  1  0  0  0  0
  3  6  1  0  0  0  0
  3  7  2  0  0  0  0
  6  8  2  0  0  0  0
  7  9  1  0  0  0  0
  9 10  2  0  0  0  0
  9 11  1  0  0  0  0
 10 12  1  0  0  0  0
 11 13  2  0  0  0  0
 12 14  2  0  0  0  0
 14 15  1  0  0  0  0
 15 16  1  0  0  0  0
 15 17  1  0  0  0  0
 16 18  2  0  0  0  0
 16 19  1  0  0  0  0
 17 20  2  0  0  0  0
 18 21  1  0  0  0  0
 19 22  2  0  0  0  0
 21 23  2  0  0  0  0
  5  6  1  0  0  0  0
 13 14  1  0  0  0  0
 18 20  1  0  0  0  0
 22 23  1  0  0  0  0
M  END
>  <S/N>
93

>  <Compound ID>
C_096

>  <PubChem CID>
16386607

>  <Isomeric SMILES>
C1=CC=C2C(=C1)N=CN2C3=CC=C(C=C3)/C=C/4\C(=O)NC(=O)S4

>  <IC50 (�M)>
0.55

>  <pIC50>
6.26

$$$$
C_097
Actelion Java MolfileCreator 1.0

 20 23  0  0  0  0  0  0  0  0999 V2000
    0.9706    0.9945   -0.0000 S   0  0  0  0  0  0  0  0  0  0  0  0
    0.8660   -0.0000   -0.0000 C   0  0  0  0  0  0  0  0  0  0  0  0
    1.9487    1.2024   -0.0000 C   0  0  0  0  0  0  0  0  0  0  0  0
    1.7796   -0.4067   -0.0000 N   0  0  0  0  0  0  0  0  0  0  0  0
    0.0000   -0.5000   -0.0000 N   0  0  0  0  0  0  0  0  0  0  0  0
    2.4487    0.3364   -0.0000 N   0  0  0  0  0  0  0  0  0  0  0  0
    2.3554    2.1160   -0.0000 C   0  0  0  0  0  0  0  0  0  0  0  0
    3.3500    2.2205   -0.0000 C   0  0  0  0  0  0  0  0  0  0  0  0
    1.7677    2.9250   -0.0000 C   0  0  0  0  0  0  0  0  0  0  0  0
    3.7567    3.1341   -0.0000 C   0  0  0  0  0  0  0  0  0  0  0  0
    3.9377    1.4115   -0.0000 C   0  0  0  0  0  0  0  0  0  0  0  0
    2.1744    3.8385   -0.0000 C   0  0  0  0  0  0  0  0  0  0  0  0
    0.7731    2.8205   -0.0000 C   0  0  0  0  0  0  0  0  0  0  0  0
    3.1689    3.9431   -0.0000 C   0  0  0  0  0  0  0  0  0  0  0  0
    4.7512    3.2386   -0.0000 C   0  0  0  0  0  0  0  0  0  0  0  0
    4.9323    1.5160   -0.0000 C   0  0  0  0  0  0  0  0  0  0  0  0
    1.5866    4.6476   -0.0000 C   0  0  0  0  0  0  0  0  0  0  0  0
    0.1853    3.6295   -0.0000 C   0  0  0  0  0  0  0  0  0  0  0  0
    5.3390    2.4296   -0.0000 C   0  0  0  0  0  0  0  0  0  0  0  0
    0.5921    4.5430   -0.0000 C   0  0  0  0  0  0  0  0  0  0  0  0
  1  2  1  0  0  0  0
  1  3  1  0  0  0  0
  2  4  2  0  0  0  0
  2  5  1  0  0  0  0
  3  6  2  0  0  0  0
  3  7  1  0  0  0  0
  7  8  2  0  0  0  0
  7  9  1  0  0  0  0
  8 10  1  0  0  0  0
  8 11  1  0  0  0  0
  9 12  2  0  0  0  0
  9 13  1  0  0  0  0
 10 14  2  0  0  0  0
 10 15  1  0  0  0  0
 11 16  2  0  0  0  0
 12 17  1  0  0  0  0
 13 18  2  0  0  0  0
 15 19  2  0  0  0  0
 17 20  2  0  0  0  0
  4  6  1  0  0  0  0
 12 14  1  0  0  0  0
 16 19  1  0  0  0  0
 18 20  1  0  0  0  0
M  END
>  <S/N>
94

>  <Compound ID>
C_097

>  <PubChem CID>
17603805

>  <Isomeric SMILES>
C1=CC=C2C(=C1)C=C3C=CC=CC3=C2C4=NN=C(S4)N

>  <IC50 (�M)>
2.3

>  <pIC50>
5.64

$$$$
C_098
Actelion Java MolfileCreator 1.0

 20 22  0  0  0  0  0  0  0  0999 V2000
    6.1097    1.0933   -0.0000 S   0  0  0  0  0  0  0  0  0  0  0  0
    6.7788    1.8364   -0.0000 C   0  0  0  0  0  0  0  0  0  0  0  0
    5.1962    1.5000   -0.0000 C   0  0  0  0  0  0  0  0  0  0  0  0
    6.2788    2.7024   -0.0000 N   0  0  0  0  0  0  0  0  0  0  0  0
    7.7734    1.7319   -0.0000 N   0  0  0  0  0  0  0  0  0  0  0  0
    5.3007    2.4945   -0.0000 N   0  0  0  0  0  0  0  0  0  0  0  0
    4.3301    1.0000   -0.0000 C   0  0  0  0  0  0  0  0  0  0  0  0
    3.4641    1.5000   -0.0000 C   0  0  0  0  0  0  0  0  0  0  0  0
    4.3301    0.0000   -0.0000 C   0  0  0  0  0  0  0  0  0  0  0  0
    2.5981    1.0000   -0.0000 C   0  0  0  0  0  0  0  0  0  0  0  0
    3.4641   -0.5000   -0.0000 C   0  0  0  0  0  0  0  0  0  0  0  0
    2.5981   -0.0000   -0.0000 C   0  0  0  0  0  0  0  0  0  0  0  0
    1.7321   -0.5000   -0.0000 O   0  0  0  0  0  0  0  0  0  0  0  0
    0.8660   -0.0000   -0.0000 C   0  0  0  0  0  0  0  0  0  0  0  0
    0.0000   -0.5000   -0.0000 C   0  0  0  0  0  0  0  0  0  0  0  0
   -0.8660    0.0000   -0.0000 C   0  0  0  0  0  0  0  0  0  0  0  0
   -0.0000   -1.5000   -0.0000 C   0  0  0  0  0  0  0  0  0  0  0  0
   -1.7321   -0.5000   -0.0000 C   0  0  0  0  0  0  0  0  0  0  0  0
   -0.8660   -2.0000   -0.0000 C   0  0  0  0  0  0  0  0  0  0  0  0
   -1.7321   -1.5000   -0.0000 C   0  0  0  0  0  0  0  0  0  0  0  0
  1  2  1  0  0  0  0
  1  3  1  0  0  0  0
  2  4  2  0  0  0  0
  2  5  1  0  0  0  0
  3  6  2  0  0  0  0
  3  7  1  0  0  0  0
  7  8  2  0  0  0  0
  7  9  1  0  0  0  0
  8 10  1  0  0  0  0
  9 11  2  0  0  0  0
 10 12  2  0  0  0  0
 12 13  1  0  0  0  0
 13 14  1  0  0  0  0
 14 15  1  0  0  0  0
 15 16  2  0  0  0  0
 15 17  1  0  0  0  0
 16 18  1  0  0  0  0
 17 19  2  0  0  0  0
 18 20  2  0  0  0  0
  4  6  1  0  0  0  0
 11 12  1  0  0  0  0
 19 20  1  0  0  0  0
M  END
>  <S/N>
95

>  <Compound ID>
C_098

>  <PubChem CID>
17603827

>  <Isomeric SMILES>
C1=CC=C(C=C1)COC2=CC=C(C=C2)C3=NN=C(S3)N

>  <IC50 (�M)>
2.3

>  <pIC50>
5.64

$$$$
C_099
Actelion Java MolfileCreator 1.0

 20 20  0  0  0  0  0  0  0  0999 V2000
   15.5885    2.2500   -0.0000 O   0  0  0  0  0  0  0  0  0  0  0  0
   14.2894    1.5000   -0.0000 C   0  0  0  0  0  0  0  0  0  0  0  0
   12.9904    2.2500   -0.0000 C   0  0  0  0  0  0  0  0  0  0  0  0
   14.2894    0.0000   -0.0000 C   0  0  0  0  0  0  0  0  0  0  0  0
   11.6913    1.5000   -0.0000 C   0  0  0  0  0  0  0  0  0  0  0  0
   12.9904    3.7500   -0.0000 C   0  0  0  0  0  0  0  0  0  0  0  0
   15.5885   -0.7500   -0.0000 O   0  0  0  0  0  0  0  0  0  0  0  0
   12.9904   -0.7500   -0.0000 C   0  0  0  0  0  0  0  0  0  0  0  0
   11.6913   -0.0000   -0.0000 C   0  0  0  0  0  0  0  0  0  0  0  0
   11.6913    4.5000   -0.0000 O   0  0  0  0  0  0  0  0  0  0  0  0
   12.9904   -2.2500   -0.0000 O   0  0  0  0  0  0  0  0  0  0  0  0
   10.3923   -0.7500   -0.0000 N   0  0  0  0  0  0  0  0  0  0  0  0
    9.0933   -0.0000   -0.0000 C   0  0  0  0  0  0  0  0  0  0  0  0
    7.7942   -0.7500   -0.0000 C   0  0  0  0  0  0  0  0  0  0  0  0
    6.4952   -0.0000   -0.0000 C   0  0  0  0  0  0  0  0  0  0  0  0
    5.1962   -0.7500   -0.0000 C   0  0  0  0  0  0  0  0  0  0  0  0
    3.8971   -0.0000   -0.0000 C   0  0  0  0  0  0  0  0  0  0  0  0
    2.5981   -0.7500   -0.0000 C   0  0  0  0  0  0  0  0  0  0  0  0
    1.2990   -0.0000   -0.0000 C   0  0  0  0  0  0  0  0  0  0  0  0
    0.0000   -0.7500   -0.0000 C   0  0  0  0  0  0  0  0  0  0  0  0
  1  2  1  0  0  0  0
  2  3  1  0  0  0  0
  2  4  1  0  0  0  0
  3  5  2  0  0  0  0
  3  6  1  0  0  0  0
  4  7  1  0  0  0  0
  4  8  1  0  0  0  0
  5  9  1  0  0  0  0
  6 10  1  0  0  0  0
  8 11  1  0  0  0  0
  9 12  1  0  0  0  0
 12 13  1  0  0  0  0
 13 14  1  0  0  0  0
 14 15  1  0  0  0  0
 15 16  1  0  0  0  0
 16 17  1  0  0  0  0
 17 18  1  0  0  0  0
 18 19  1  0  0  0  0
 19 20  1  0  0  0  0
  8  9  1  0  0  0  0
M  END
>  <S/N>
96

>  <Compound ID>
C_099

>  <PubChem CID>
21021619

>  <Isomeric SMILES>
CCCCCCCCNC1C=C(C(C(C1O)O)O)CO

>  <IC50 (�M)>
17

>  <pIC50>
4.77

$$$$
C_100
Actelion Java MolfileCreator 1.0

 17 19  0  0  0  0  0  0  0  0999 V2000
    5.1962    2.2500   -0.0000 F   0  0  0  0  0  0  0  0  0  0  0  0
    3.8971    1.5000   -0.0000 C   0  0  0  0  0  0  0  0  0  0  0  0
    2.5981    2.2500   -0.0000 C   0  0  0  0  0  0  0  0  0  0  0  0
    3.8971   -0.0000   -0.0000 C   0  0  0  0  0  0  0  0  0  0  0  0
    1.2990    1.5000   -0.0000 C   0  0  0  0  0  0  0  0  0  0  0  0
    2.5981   -0.7500   -0.0000 C   0  0  0  0  0  0  0  0  0  0  0  0
    1.2990   -0.0000   -0.0000 C   0  0  0  0  0  0  0  0  0  0  0  0
    0.0000   -0.7500   -0.0000 C   0  0  0  0  0  0  0  0  0  0  0  0
   -1.3703   -0.1399   -0.0000 N   0  0  0  0  0  0  0  0  0  0  0  0
   -0.1568   -2.2418   -0.0000 N   0  0  0  0  0  0  0  0  0  0  0  0
   -2.3740   -1.2546   -0.0000 C   0  0  0  0  0  0  0  0  0  0  0  0
   -1.6240   -2.5537   -0.0000 C   0  0  0  0  0  0  0  0  0  0  0  0
   -3.8740   -1.2546   -0.0000 C   0  0  0  0  0  0  0  0  0  0  0  0
   -2.3740   -3.8527   -0.0000 C   0  0  0  0  0  0  0  0  0  0  0  0
   -4.6240   -2.5537   -0.0000 C   0  0  0  0  0  0  0  0  0  0  0  0
   -4.6240    0.0444   -0.0000 C   0  0  0  0  0  0  0  0  0  0  0  0
   -3.8740   -3.8527   -0.0000 C   0  0  0  0  0  0  0  0  0  0  0  0
  1  2  1  0  0  0  0
  2  3  2  0  0  0  0
  2  4  1  0  0  0  0
  3  5  1  0  0  0  0
  4  6  2  0  0  0  0
  5  7  2  0  0  0  0
  7  8  1  0  0  0  0
  8  9  2  0  0  0  0
  8 10  1  0  0  0  0
  9 11  1  0  0  0  0
 10 12  1  0  0  0  0
 11 13  2  0  0  0  0
 12 14  2  0  0  0  0
 13 15  1  0  0  0  0
 13 16  1  0  0  0  0
 14 17  1  0  0  0  0
  6  7  1  0  0  0  0
 11 12  1  0  0  0  0
 15 17  2  0  0  0  0
M  END
>  <S/N>
97

>  <Compound ID>
C_100

>  <PubChem CID>
21682292

>  <Isomeric SMILES>
CC1=C2C(=CC=C1)NC(=N2)C3=CC=C(C=C3)F

>  <IC50 (�M)>
5.3

>  <pIC50>
5.28

$$$$
C_101
Actelion Java MolfileCreator 1.0

 30 32  0  0  0  0  0  0  0  0999 V2000
    3.4641   -0.5000   -0.0000 O   0  0  0  0  0  0  0  0  0  0  0  0
    4.3301   -0.0000   -0.0000 C   0  0  0  0  0  0  0  0  0  0  0  0
    2.5981   -0.0000   -0.0000 C   0  0  0  0  0  0  0  0  0  0  0  0
    5.1962   -0.5000   -0.0000 C   0  0  0  0  0  0  0  0  0  0  0  0
    4.3301    1.0000   -0.0000 C   0  0  0  0  0  0  0  0  0  0  0  0
    1.7321   -0.5000   -0.0000 C   0  0  0  0  0  0  0  0  0  0  0  0
    6.0622   -0.0000   -0.0000 C   0  0  0  0  0  0  0  0  0  0  0  0
    5.1962    1.5000   -0.0000 C   0  0  0  0  0  0  0  0  0  0  0  0
    0.8660   -0.0000   -0.0000 C   0  0  0  0  0  0  0  0  0  0  0  0
    6.0622    1.0000   -0.0000 C   0  0  0  0  0  0  0  0  0  0  0  0
    0.8660    1.0000   -0.0000 C   0  0  0  0  0  0  0  0  0  0  0  0
    0.0000   -0.5000   -0.0000 C   0  0  0  0  0  0  0  0  0  0  0  0
    6.9282    1.5000   -0.0000 C   0  0  0  0  0  0  0  0  0  0  0  0
    7.7942    1.0000   -0.0000 C   0  0  0  0  0  0  0  0  0  0  0  0
    6.9282    2.5000   -0.0000 C   0  0  0  0  0  0  0  0  0  0  0  0
    7.7942    0.0000   -0.0000 O   0  0  0  0  0  0  0  0  0  0  0  0
    8.6603    1.5000   -0.0000 C   0  0  0  0  0  0  0  0  0  0  0  0
    6.0622    3.0000   -0.0000 O   0  0  0  0  0  0  0  0  0  0  0  0
    7.7942    3.0000   -0.0000 C   0  0  0  0  0  0  0  0  0  0  0  0
    9.5263    1.0000   -0.0000 O   0  0  0  0  0  0  0  0  0  0  0  0
    8.6603    2.5000   -0.0000 C   0  0  0  0  0  0  0  0  0  0  0  0
    5.1962    2.5000   -0.0000 C   0  0  0  0  0  0  0  0  0  0  0  0
   10.3923    1.5000   -0.0000 C   0  0  0  0  0  0  0  0  0  0  0  0
    9.5263    3.0000   -0.0000 C   0  0  0  0  0  0  0  0  0  0  0  0
   10.3923    2.5000   -0.0000 C   0  0  0  0  0  0  0  0  0  0  0  0
    9.5263    4.0000   -0.0000 C   0  0  0  0  0  0  0  0  0  0  0  0
   11.2583    3.0000   -0.0000 C   0  0  0  0  0  0  0  0  0  0  0  0
   10.3923    4.5000   -0.0000 C   0  0  0  0  0  0  0  0  0  0  0  0
   11.2583    4.0000   -0.0000 C   0  0  0  0  0  0  0  0  0  0  0  0
   12.1244    4.5000   -0.0000 O   0  0  0  0  0  0  0  0  0  0  0  0
  1  2  1  0  0  0  0
  1  3  1  0  0  0  0
  2  4  2  0  0  0  0
  2  5  1  0  0  0  0
  3  6  1  0  0  0  0
  4  7  1  0  0  0  0
  5  8  2  0  0  0  0
  6  9  2  0  0  0  0
  7 10  2  0  0  0  0
  9 11  1  0  0  0  0
  9 12  1  0  0  0  0
 10 13  1  0  0  0  0
 13 14  2  0  0  0  0
 13 15  1  0  0  0  0
 14 16  1  0  0  0  0
 14 17  1  0  0  0  0
 15 18  1  0  0  0  0
 15 19  2  0  0  0  0
 17 20  1  0  0  0  0
 17 21  2  0  0  0  0
 18 22  1  0  0  0  0
 20 23  1  0  0  0  0
 21 24  1  0  0  0  0
 24 25  2  0  0  0  0
 24 26  1  0  0  0  0
 25 27  1  0  0  0  0
 26 28  2  0  0  0  0
 27 29  2  0  0  0  0
 29 30  1  0  0  0  0
  8 10  1  0  0  0  0
 19 21  1  0  0  0  0
 28 29  1  0  0  0  0
M  END
>  <S/N>
98

>  <Compound ID>
C_101

>  <PubChem CID>
23538861

>  <Isomeric SMILES>
CC(=CCOC1=CC=C(C=C1)C2=C(C=C(C(=C2O)OC)C3=CC=C(C=C3)O)OC)C

>  <IC50 (�M)>
17.5

>  <pIC50>
4.76

$$$$
C_102
Actelion Java MolfileCreator 1.0

 30 32  0  0  0  0  0  0  0  0999 V2000
    6.9282    2.5000   -0.0000 O   0  0  0  0  0  0  0  0  0  0  0  0
    6.9282    1.5000   -0.0000 C   0  0  0  0  0  0  0  0  0  0  0  0
    6.0622    3.0000   -0.0000 C   0  0  0  0  0  0  0  0  0  0  0  0
    6.0622    1.0000   -0.0000 C   0  0  0  0  0  0  0  0  0  0  0  0
    7.7942    1.0000   -0.0000 C   0  0  0  0  0  0  0  0  0  0  0  0
    5.1962    1.5000   -0.0000 O   0  0  0  0  0  0  0  0  0  0  0  0
    6.0622   -0.0000   -0.0000 C   0  0  0  0  0  0  0  0  0  0  0  0
    8.6603    1.5000   -0.0000 C   0  0  0  0  0  0  0  0  0  0  0  0
    7.7942   -0.0000   -0.0000 C   0  0  0  0  0  0  0  0  0  0  0  0
    6.9282   -0.5000   -0.0000 C   0  0  0  0  0  0  0  0  0  0  0  0
    5.1962   -0.5000   -0.0000 C   0  0  0  0  0  0  0  0  0  0  0  0
    9.5263    1.0000   -0.0000 C   0  0  0  0  0  0  0  0  0  0  0  0
    8.6603    2.5000   -0.0000 C   0  0  0  0  0  0  0  0  0  0  0  0
    6.9282   -1.5000   -0.0000 O   0  0  0  0  0  0  0  0  0  0  0  0
    4.3301   -0.0000   -0.0000 C   0  0  0  0  0  0  0  0  0  0  0  0
    5.1962   -1.5000   -0.0000 C   0  0  0  0  0  0  0  0  0  0  0  0
   10.3923    1.5000   -0.0000 C   0  0  0  0  0  0  0  0  0  0  0  0
    9.5263    3.0000   -0.0000 C   0  0  0  0  0  0  0  0  0  0  0  0
    7.7942   -2.0000   -0.0000 C   0  0  0  0  0  0  0  0  0  0  0  0
    3.4641   -0.5000   -0.0000 C   0  0  0  0  0  0  0  0  0  0  0  0
    4.3301   -2.0000   -0.0000 C   0  0  0  0  0  0  0  0  0  0  0  0
   10.3923    2.5000   -0.0000 C   0  0  0  0  0  0  0  0  0  0  0  0
    3.4641   -1.5000   -0.0000 C   0  0  0  0  0  0  0  0  0  0  0  0
    2.5981   -0.0000   -0.0000 C   0  0  0  0  0  0  0  0  0  0  0  0
   11.2583    3.0000   -0.0000 O   0  0  0  0  0  0  0  0  0  0  0  0
    2.5981   -2.0000   -0.0000 O   0  0  0  0  0  0  0  0  0  0  0  0
    1.7321   -0.5000   -0.0000 C   0  0  0  0  0  0  0  0  0  0  0  0
    0.8660   -0.0000   -0.0000 C   0  0  0  0  0  0  0  0  0  0  0  0
    0.8660    1.0000   -0.0000 C   0  0  0  0  0  0  0  0  0  0  0  0
    0.0000   -0.5000   -0.0000 C   0  0  0  0  0  0  0  0  0  0  0  0
  1  2  1  0  0  0  0
  1  3  1  0  0  0  0
  2  4  2  0  0  0  0
  2  5  1  0  0  0  0
  4  6  1  0  0  0  0
  4  7  1  0  0  0  0
  5  8  1  0  0  0  0
  5  9  2  0  0  0  0
  7 10  2  0  0  0  0
  7 11  1  0  0  0  0
  8 12  2  0  0  0  0
  8 13  1  0  0  0  0
 10 14  1  0  0  0  0
 11 15  2  0  0  0  0
 11 16  1  0  0  0  0
 12 17  1  0  0  0  0
 13 18  2  0  0  0  0
 14 19  1  0  0  0  0
 15 20  1  0  0  0  0
 16 21  2  0  0  0  0
 17 22  2  0  0  0  0
 20 23  2  0  0  0  0
 20 24  1  0  0  0  0
 22 25  1  0  0  0  0
 23 26  1  0  0  0  0
 24 27  1  0  0  0  0
 27 28  2  0  0  0  0
 28 29  1  0  0  0  0
 28 30  1  0  0  0  0
  9 10  1  0  0  0  0
 18 22  1  0  0  0  0
 21 23  1  0  0  0  0
M  END
>  <S/N>
99

>  <Compound ID>
C_102

>  <PubChem CID>
23630784

>  <Isomeric SMILES>
CC(=CCC1=C(C=CC(=C1)C2=C(C=C(C(=C2O)OC)C3=CC=C(C=C3)O)OC)O)C

>  <IC50 (�M)>
25.7

>  <pIC50>
4.59

$$$$
C_103
Actelion Java MolfileCreator 1.0

 36 40  0  0  0  0  0  0  0  0999 V2000
    4.4347    0.9945   -0.0000 S   0  0  0  0  0  0  0  0  0  0  0  0
    4.3301   -0.0000   -0.0000 C   0  0  0  0  0  0  0  0  0  0  0  0
    5.4128    1.2024   -0.0000 C   0  0  0  0  0  0  0  0  0  0  0  0
    5.2437   -0.4067   -0.0000 N   0  0  0  0  0  0  0  0  0  0  0  0
    3.4641   -0.5000   -0.0000 N   0  0  0  0  0  0  0  0  0  0  0  0
    5.9128    0.3364   -0.0000 C   0  0  0  0  0  0  0  0  0  0  0  0
    2.5981   -0.0000   -0.0000 C   0  0  0  0  0  0  0  0  0  0  0  0
    6.9073    0.2319   -0.0000 C   0  0  0  0  0  0  0  0  0  0  0  0
    2.5981    1.0000   -0.0000 O   0  0  0  0  0  0  0  0  0  0  0  0
    1.7321   -0.5000   -0.0000 C   0  0  0  0  0  0  0  0  0  0  0  0
    7.3141   -0.6817   -0.0000 C   0  0  0  0  0  0  0  0  0  0  0  0
    7.4951    1.0409   -0.0000 C   0  0  0  0  0  0  0  0  0  0  0  0
    0.8660   -0.0000   -0.0000 S   0  0  0  0  0  0  0  0  0  0  0  0
    8.3086   -0.7862   -0.0000 C   0  0  0  0  0  0  0  0  0  0  0  0
    8.4896    0.9364   -0.0000 C   0  0  0  0  0  0  0  0  0  0  0  0
    0.0000   -0.5000   -0.0000 C   0  0  0  0  0  0  0  0  0  0  0  0
    8.8964    0.0228   -0.0000 C   0  0  0  0  0  0  0  0  0  0  0  0
   -0.8660    0.0000   -0.0000 N   0  0  0  0  0  0  0  0  0  0  0  0
   -0.0000   -1.5000   -0.0000 N   0  0  0  0  0  0  0  0  0  0  0  0
    9.8909   -0.0817   -0.0000 O   0  0  0  0  0  0  0  0  0  0  0  0
   -1.7321   -0.5000   -0.0000 N   0  0  0  0  0  0  0  0  0  0  0  0
   -0.8660   -2.0000   -0.0000 C   0  0  0  0  0  0  0  0  0  0  0  0
   10.4787    0.7273   -0.0000 C   0  0  0  0  0  0  0  0  0  0  0  0
   -1.7321   -1.5000   -0.0000 C   0  0  0  0  0  0  0  0  0  0  0  0
   -0.8660   -3.0000   -0.0000 C   0  0  0  0  0  0  0  0  0  0  0  0
   -2.5981   -2.0000   -0.0000 C   0  0  0  0  0  0  0  0  0  0  0  0
   -1.7321   -3.5000   -0.0000 C   0  0  0  0  0  0  0  0  0  0  0  0
   -0.0000   -3.5000   -0.0000 C   0  0  0  0  0  0  0  0  0  0  0  0
   -3.4641   -1.5000   -0.0000 C   0  0  0  0  0  0  0  0  0  0  0  0
   -2.5981   -3.0000   -0.0000 C   0  0  0  0  0  0  0  0  0  0  0  0
   -1.7321   -4.5000   -0.0000 C   0  0  0  0  0  0  0  0  0  0  0  0
   -0.0000   -4.5000   -0.0000 C   0  0  0  0  0  0  0  0  0  0  0  0
   -4.3301   -2.0000   -0.0000 C   0  0  0  0  0  0  0  0  0  0  0  0
   -3.4641   -3.5000   -0.0000 C   0  0  0  0  0  0  0  0  0  0  0  0
   -0.8660   -5.0000   -0.0000 C   0  0  0  0  0  0  0  0  0  0  0  0
   -4.3301   -3.0000   -0.0000 C   0  0  0  0  0  0  0  0  0  0  0  0
  1  2  1  0  0  0  0
  1  3  1  0  0  0  0
  2  4  2  0  0  0  0
  2  5  1  0  0  0  0
  3  6  2  0  0  0  0
  5  7  1  0  0  0  0
  6  8  1  0  0  0  0
  7  9  2  0  0  0  0
  7 10  1  0  0  0  0
  8 11  2  0  0  0  0
  8 12  1  0  0  0  0
 10 13  1  0  0  0  0
 11 14  1  0  0  0  0
 12 15  2  0  0  0  0
 13 16  1  0  0  0  0
 14 17  2  0  0  0  0
 16 18  2  0  0  0  0
 16 19  1  0  0  0  0
 17 20  1  0  0  0  0
 18 21  1  0  0  0  0
 19 22  2  0  0  0  0
 20 23  1  0  0  0  0
 21 24  2  0  0  0  0
 22 25  1  0  0  0  0
 24 26  1  0  0  0  0
 25 27  2  0  0  0  0
 25 28  1  0  0  0  0
 26 29  2  0  0  0  0
 26 30  1  0  0  0  0
 27 31  1  0  0  0  0
 28 32  2  0  0  0  0
 29 33  1  0  0  0  0
 30 34  2  0  0  0  0
 31 35  2  0  0  0  0
 33 36  2  0  0  0  0
  4  6  1  0  0  0  0
 15 17  1  0  0  0  0
 22 24  1  0  0  0  0
 32 35  1  0  0  0  0
 34 36  1  0  0  0  0
M  END
>  <S/N>
100

>  <Compound ID>
C_103

>  <PubChem CID>
23793555

>  <Isomeric SMILES>
COC1=CC=C(C=C1)C2=CSC(=N2)NC(=O)CSC3=NC(=C(N=N3)C4=CC=CC=C4)C5=CC=CC=C5

>  <IC50 (�M)>
2.8

>  <pIC50>
5.55

$$$$
C_104
Actelion Java MolfileCreator 1.0

 23 25  0  0  0  0  0  0  0  0999 V2000
    5.3077    4.8566   -0.0000 Cl  0  0  0  0  0  0  0  0  0  0  0  0
    4.9010    3.9431   -0.0000 C   0  0  0  0  0  0  0  0  0  0  0  0
    3.9064    3.8385   -0.0000 C   0  0  0  0  0  0  0  0  0  0  0  0
    5.4887    3.1341   -0.0000 C   0  0  0  0  0  0  0  0  0  0  0  0
    3.4997    2.9250   -0.0000 C   0  0  0  0  0  0  0  0  0  0  0  0
    5.0820    2.2205   -0.0000 C   0  0  0  0  0  0  0  0  0  0  0  0
    4.0875    2.1160   -0.0000 C   0  0  0  0  0  0  0  0  0  0  0  0
    3.6808    1.2024   -0.0000 C   0  0  0  0  0  0  0  0  0  0  0  0
    2.7026    0.9945   -0.0000 S   0  0  0  0  0  0  0  0  0  0  0  0
    4.1808    0.3364   -0.0000 N   0  0  0  0  0  0  0  0  0  0  0  0
    2.5981   -0.0000   -0.0000 C   0  0  0  0  0  0  0  0  0  0  0  0
    3.5116   -0.4067   -0.0000 N   0  0  0  0  0  0  0  0  0  0  0  0
    1.7321   -0.5000   -0.0000 N   0  0  0  0  0  0  0  0  0  0  0  0
    0.8660   -0.0000   -0.0000 C   0  0  0  0  0  0  0  0  0  0  0  0
    0.0000   -0.5000   -0.0000 C   0  0  0  0  0  0  0  0  0  0  0  0
   -0.8660    0.0000   -0.0000 C   0  0  0  0  0  0  0  0  0  0  0  0
   -0.0000   -1.5000   -0.0000 C   0  0  0  0  0  0  0  0  0  0  0  0
   -1.7321   -0.5000   -0.0000 C   0  0  0  0  0  0  0  0  0  0  0  0
   -0.8660   -2.0000   -0.0000 C   0  0  0  0  0  0  0  0  0  0  0  0
   -1.7321   -1.5000   -0.0000 C   0  0  0  0  0  0  0  0  0  0  0  0
   -2.5981   -2.0000   -0.0000 N   0  0  0  0  0  0  0  0  0  0  0  0
   -3.4641   -1.5000   -0.0000 O   0  0  0  0  0  0  0  0  0  0  0  0
   -2.5981   -3.0000   -0.0000 O   0  0  0  0  0  0  0  0  0  0  0  0
  1  2  1  0  0  0  0
  2  3  2  0  0  0  0
  2  4  1  0  0  0  0
  3  5  1  0  0  0  0
  4  6  2  0  0  0  0
  5  7  2  0  0  0  0
  7  8  1  0  0  0  0
  8  9  1  0  0  0  0
  8 10  2  0  0  0  0
  9 11  1  0  0  0  0
 10 12  1  0  0  0  0
 11 13  1  0  0  0  0
 13 14  2  0  0  0  0
 14 15  1  0  0  0  0
 15 16  2  0  0  0  0
 15 17  1  0  0  0  0
 16 18  1  0  0  0  0
 17 19  2  0  0  0  0
 18 20  2  0  0  0  0
 20 21  1  0  0  0  0
 21 22  2  0  0  0  0
 21 23  1  0  0  0  0
  6  7  1  0  0  0  0
 11 12  2  0  0  0  0
 19 20  1  0  0  0  0
M  CHG  2  21   1  23  -1
M  END
>  <S/N>
101

>  <Compound ID>
C_104

>  <PubChem CID>
24796417

>  <Isomeric SMILES>
C1=CC(=CC=C1/C=N/C2=NN=C(S2)C3=CC=C(C=C3)Cl)[N+](=O)[O-]

>  <IC50 (�M)>
2.3

>  <pIC50>
5.64

$$$$
C_105
Actelion Java MolfileCreator 1.0

 29 34  0  0  0  0  0  0  0  0999 V2000
    1.3043   -0.0000   -0.0000 O   0  0  0  0  0  0  0  0  0  0  0  0
    0.0000   -0.7530   -0.0000 C   0  0  0  0  0  0  0  0  0  0  0  0
   -1.3758   -0.1405   -0.0000 N   0  0  0  0  0  0  0  0  0  0  0  0
   -0.1574   -2.2508   -0.0000 C   0  0  0  0  0  0  0  0  0  0  0  0
   -2.3835   -1.2596   -0.0000 C   0  0  0  0  0  0  0  0  0  0  0  0
   -1.6305   -2.5639   -0.0000 C   0  0  0  0  0  0  0  0  0  0  0  0
    0.9618   -3.2585   -0.0000 C   0  0  0  0  0  0  0  0  0  0  0  0
   -0.5472   -3.7055   -0.0000 C   0  0  0  0  0  0  0  0  0  0  0  0
   -3.8896   -1.2596   -0.0000 C   0  0  0  0  0  0  0  0  0  0  0  0
   -2.4176   -3.8384   -0.0000 C   0  0  0  0  0  0  0  0  0  0  0  0
    2.4349   -2.9454   -0.0000 C   0  0  0  0  0  0  0  0  0  0  0  0
    0.9048   -4.6159   -0.0000 C   0  0  0  0  0  0  0  0  0  0  0  0
    0.3180   -4.9184   -0.0000 C   0  0  0  0  0  0  0  0  0  0  0  0
   -1.8852   -4.3048   -0.0000 C   0  0  0  0  0  0  0  0  0  0  0  0
   -4.6426   -2.5639   -0.0000 C   0  0  0  0  0  0  0  0  0  0  0  0
   -3.8896   -3.8682   -0.0000 C   0  0  0  0  0  0  0  0  0  0  0  0
    3.1879   -4.2496   -0.0000 C   0  0  0  0  0  0  0  0  0  0  0  0
    3.1879   -1.6411   -0.0000 C   0  0  0  0  0  0  0  0  0  0  0  0
    2.3611   -5.3188   -0.0000 N   0  0  0  0  0  0  0  0  0  0  0  0
   -0.4197   -6.1389   -0.0000 C   0  0  0  0  0  0  0  0  0  0  0  0
    1.9037   -4.7982   -0.0000 C   0  0  0  0  0  0  0  0  0  0  0  0
   -1.8744   -5.7491   -0.0000 N   0  0  0  0  0  0  0  0  0  0  0  0
   -4.6426   -5.1724   -0.0000 C   0  0  0  0  0  0  0  0  0  0  0  0
    4.6939   -4.2496   -0.0000 C   0  0  0  0  0  0  0  0  0  0  0  0
    4.6939   -1.6411   -0.0000 C   0  0  0  0  0  0  0  0  0  0  0  0
    0.2640   -7.4808   -0.0000 C   0  0  0  0  0  0  0  0  0  0  0  0
    2.5882   -6.2966   -0.0000 C   0  0  0  0  0  0  0  0  0  0  0  0
    5.4469   -2.9454   -0.0000 C   0  0  0  0  0  0  0  0  0  0  0  0
    1.7680   -7.5596   -0.0000 C   0  0  0  0  0  0  0  0  0  0  0  0
  1  2  2  0  0  0  0
  2  3  1  0  0  0  0
  2  4  1  0  0  0  0
  3  5  1  0  0  0  0
  4  6  1  0  0  0  0
  4  7  1  0  0  0  0
  4  8  1  0  0  0  0
  5  9  1  0  0  0  0
  6 10  1  0  0  0  0
  7 11  1  0  0  0  0
  7 12  2  0  0  0  0
  8 13  1  0  0  0  0
  8 14  2  0  0  0  0
  9 15  2  0  0  0  0
 10 16  2  0  0  0  0
 11 17  2  0  0  0  0
 11 18  1  0  0  0  0
 12 19  1  0  0  0  0
 13 20  2  0  0  0  0
 13 21  1  0  0  0  0
 14 22  1  0  0  0  0
 16 23  1  0  0  0  0
 17 24  1  0  0  0  0
 18 25  2  0  0  0  0
 20 26  1  0  0  0  0
 21 27  2  0  0  0  0
 24 28  2  0  0  0  0
 26 29  2  0  0  0  0
  5  6  2  0  0  0  0
 15 16  1  0  0  0  0
 17 19  1  0  0  0  0
 20 22  1  0  0  0  0
 25 28  1  0  0  0  0
 27 29  1  0  0  0  0
M  END
>  <S/N>
102

>  <Compound ID>
C_105

>  <PubChem CID>
24873940

>  <Isomeric SMILES>
CC1=CC2=C(C=C1)NC(=O)C2(C3=CNC4=CC=CC=C43)C5=CNC6=CC=CC=C65

>  <IC50 (�M)>
5.9

>  <pIC50>
5.23

$$$$
C_106
Actelion Java MolfileCreator 1.0

 31 34  0  0  1  0  0  0  0  0999 V2000
    6.4907   -2.4002   -0.0000 O   0  0  0  0  0  0  0  0  0  0  0  0
    5.0060   -2.6353   -0.0000 C   0  0  0  0  0  0  0  0  0  0  0  0
    3.9430   -1.5724   -0.0000 O   0  0  0  0  0  0  0  0  0  0  0  0
    4.3235   -3.9747   -0.0000 C   0  0  0  0  0  0  0  0  0  0  0  0
    2.6037   -2.2548   -0.0000 C   0  0  0  0  0  0  0  0  0  0  0  0
    5.0060   -5.3141   -0.0000 O   0  0  0  0  0  0  0  0  0  0  0  0
    2.8388   -3.7395   -0.0000 C   0  0  0  0  0  0  0  0  0  0  0  0
    2.6037   -0.7516   -0.0000 C   0  0  0  0  0  0  0  0  0  0  0  0
    1.2643   -1.5724   -0.0000 C   0  0  0  0  0  0  0  0  0  0  0  0
    1.7759   -4.8025   -0.0000 C   0  0  0  0  0  0  0  0  0  0  0  0
    3.9055    0.0000   -0.0000 O   0  0  0  0  0  0  0  0  0  0  0  0
    1.3018    0.0000   -0.0000 O   0  0  0  0  0  0  0  0  0  0  0  0
    0.0036   -2.3911   -0.0000 C   0  0  0  0  0  0  0  0  0  0  0  0
    0.3425   -4.4536   -0.0000 C   0  0  0  0  0  0  0  0  0  0  0  0
    2.1649   -6.2545   -0.0000 C   0  0  0  0  0  0  0  0  0  0  0  0
   -0.0000   -0.7516   -0.0000 C   0  0  0  0  0  0  0  0  0  0  0  0
   -1.3358   -1.7086   -0.0000 C   0  0  0  0  0  0  0  0  0  0  0  0
    0.0450   -3.8119   -0.0000 C   0  0  0  0  0  0  0  0  0  0  0  0
   -0.7391   -5.4764   -0.0000 C   0  0  0  0  0  0  0  0  0  0  0  0
    1.1020   -7.3174   -0.0000 C   0  0  0  0  0  0  0  0  0  0  0  0
   -2.5965   -2.5274   -0.0000 C   0  0  0  0  0  0  0  0  0  0  0  0
   -1.1785   -4.7110   -0.0000 C   0  0  0  0  0  0  0  0  0  0  0  0
   -0.3500   -6.9284   -0.0000 C   0  0  0  0  0  0  0  0  0  0  0  0
   -2.5178   -4.0285   -0.0000 C   0  0  0  0  0  0  0  0  0  0  0  0
   -3.9359   -1.8449   -0.0000 C   0  0  0  0  0  0  0  0  0  0  0  0
   -1.4129   -7.9913   -0.0000 O   0  0  0  0  0  0  0  0  0  0  0  0
   -3.7786   -4.8472   -0.0000 O   0  0  0  0  0  0  0  0  0  0  0  0
   -5.1966   -2.6636   -0.0000 C   0  0  0  0  0  0  0  0  0  0  0  0
   -5.1179   -4.1648   -0.0000 C   0  0  0  0  0  0  0  0  0  0  0  0
   -6.6191   -4.2434   -0.0000 C   0  0  0  0  0  0  0  0  0  0  0  0
   -5.8003   -5.5041   -0.0000 C   0  0  0  0  0  0  0  0  0  0  0  0
  1  2  2  0  0  0  0
  2  3  1  0  0  0  0
  2  4  1  0  0  0  0
  3  5  1  0  0  0  0
  4  6  1  0  0  0  0
  4  7  2  0  0  0  0
  5  8  1  0  0  0  0
  5  9  1  1  0  0  0
  7 10  1  0  0  0  0
  8 11  2  0  0  0  0
  8 12  1  0  0  0  0
  9 13  1  0  0  0  0
 10 14  2  0  0  0  0
 10 15  1  0  0  0  0
 12 16  1  0  0  0  0
 13 17  2  0  0  0  0
 13 18  1  0  0  0  0
 14 19  1  0  0  0  0
 15 20  2  0  0  0  0
 17 21  1  0  0  0  0
 18 22  2  0  0  0  0
 19 23  2  0  0  0  0
 21 24  2  0  0  0  0
 21 25  1  0  0  0  0
 23 26  1  0  0  0  0
 24 27  1  0  0  0  0
 25 28  1  0  0  0  0
 27 29  1  0  0  0  0
 29 30  1  0  0  0  0
 29 31  1  0  0  0  0
  5  7  1  0  0  0  0
 20 23  1  0  0  0  0
 22 24  1  0  0  0  0
 28 29  1  0  0  0  0
M  END
>  <S/N>
103

>  <Compound ID>
C_106

>  <PubChem CID>
25265784

>  <Isomeric SMILES>
CC1(CCC2=C(O1)C=CC(=C2)C[C@@]3(C(=C(C(=O)O3)O)C4=CC=C(C=C4)O)C(=O)OC)C

>  <IC50 (�M)>
47.33

>  <pIC50>
4.32

$$$$
C_108
Actelion Java MolfileCreator 1.0

 18 18  0  0  0  0  0  0  0  0999 V2000
    8.6603    1.5000   -0.0000 O   0  0  0  0  0  0  0  0  0  0  0  0
    7.7942    1.0000   -0.0000 C   0  0  0  0  0  0  0  0  0  0  0  0
    6.9282    1.5000   -0.0000 C   0  0  0  0  0  0  0  0  0  0  0  0
    7.7942   -0.0000   -0.0000 C   0  0  0  0  0  0  0  0  0  0  0  0
    6.0622    1.0000   -0.0000 C   0  0  0  0  0  0  0  0  0  0  0  0
    6.9282    2.5000   -0.0000 C   0  0  0  0  0  0  0  0  0  0  0  0
    8.6603   -0.5000   -0.0000 O   0  0  0  0  0  0  0  0  0  0  0  0
    6.9282   -0.5000   -0.0000 C   0  0  0  0  0  0  0  0  0  0  0  0
    6.0622   -0.0000   -0.0000 C   0  0  0  0  0  0  0  0  0  0  0  0
    6.0622    3.0000   -0.0000 O   0  0  0  0  0  0  0  0  0  0  0  0
    6.9282   -1.5000   -0.0000 O   0  0  0  0  0  0  0  0  0  0  0  0
    5.1962   -0.5000   -0.0000 N   0  0  0  0  0  0  0  0  0  0  0  0
    4.3301   -0.0000   -0.0000 C   0  0  0  0  0  0  0  0  0  0  0  0
    3.4641   -0.5000   -0.0000 C   0  0  0  0  0  0  0  0  0  0  0  0
    2.5981   -0.0000   -0.0000 C   0  0  0  0  0  0  0  0  0  0  0  0
    1.7321   -0.5000   -0.0000 C   0  0  0  0  0  0  0  0  0  0  0  0
    0.8660   -0.0000   -0.0000 C   0  0  0  0  0  0  0  0  0  0  0  0
    0.0000   -0.5000   -0.0000 C   0  0  0  0  0  0  0  0  0  0  0  0
  1  2  1  0  0  0  0
  2  3  1  0  0  0  0
  2  4  1  0  0  0  0
  3  5  2  0  0  0  0
  3  6  1  0  0  0  0
  4  7  1  0  0  0  0
  4  8  1  0  0  0  0
  5  9  1  0  0  0  0
  6 10  1  0  0  0  0
  8 11  1  0  0  0  0
  9 12  1  0  0  0  0
 12 13  1  0  0  0  0
 13 14  1  0  0  0  0
 14 15  1  0  0  0  0
 15 16  1  0  0  0  0
 16 17  1  0  0  0  0
 17 18  1  0  0  0  0
  8  9  1  0  0  0  0
M  END
>  <S/N>
104

>  <Compound ID>
C_108

>  <PubChem CID>
44384057

>  <Isomeric SMILES>
CCCCCCNC1C=C(C(C(C1O)O)O)CO

>  <IC50 (�M)>
50

>  <pIC50>
4.3

$$$$
C_109
Actelion Java MolfileCreator 1.0

 33 37  0  0  1  0  0  0  0  0999 V2000
    1.7321    7.5000   -0.0000 Br  0  0  0  0  0  0  0  0  0  0  0  0
    2.5981    7.0000   -0.0000 C   0  0  0  0  0  0  0  0  0  0  0  0
    2.5981    6.0000   -0.0000 C   0  0  0  0  0  0  0  0  0  0  0  0
    3.4641    7.5000   -0.0000 C   0  0  0  0  0  0  0  0  0  0  0  0
    3.4641    5.5000   -0.0000 C   0  0  0  0  0  0  0  0  0  0  0  0
    4.3301    7.0000   -0.0000 C   0  0  0  0  0  0  0  0  0  0  0  0
    4.3301    6.0000   -0.0000 C   0  0  0  0  0  0  0  0  0  0  0  0
    3.4641    4.5000   -0.0000 C   0  0  0  0  0  0  0  0  0  0  0  0
    2.5981    4.0000   -0.0000 O   0  0  0  0  0  0  0  0  0  0  0  0
    4.3301    4.0000   -0.0000 O   0  0  0  0  0  0  0  0  0  0  0  0
    2.5981    3.0000   -0.0000 C   0  0  0  0  0  0  0  0  0  0  0  0
    4.3301    3.0000   -0.0000 C   0  0  0  0  0  0  0  0  0  0  0  0
    3.4641    2.5000   -0.0000 C   0  0  0  0  0  0  0  0  0  0  0  0
    1.7321    2.5000   -0.0000 C   0  0  0  0  0  0  0  0  0  0  0  0
    3.4641    1.5000   -0.0000 C   0  0  0  0  0  0  0  0  0  0  0  0
    4.3301    2.0000   -0.0000 C   0  0  0  0  0  0  0  0  0  0  0  0
    1.7321    1.5000   -0.0000 C   0  0  0  0  0  0  0  0  0  0  0  0
    2.5981    1.0000   -0.0000 C   0  0  0  0  0  0  0  0  0  0  0  0
    4.3301    1.0000   -0.0000 C   0  0  0  0  0  0  0  0  0  0  0  0
    2.5981   -0.0000   -0.0000 C   0  0  0  0  0  0  0  0  0  0  0  0
    1.7321    0.5000   -0.0000 C   0  0  0  0  0  0  0  0  0  0  0  0
    4.3301    0.0000   -0.0000 C   0  0  0  0  0  0  0  0  0  0  0  0
    3.4641   -0.5000   -0.0000 C   0  0  0  0  0  0  0  0  0  0  0  0
    1.7321   -0.5000   -0.0000 C   0  0  0  0  0  0  0  0  0  0  0  0
    3.4641   -1.5000   -0.0000 C   0  0  0  0  0  0  0  0  0  0  0  0
    0.8660   -0.0000   -0.0000 C   0  0  0  0  0  0  0  0  0  0  0  0
    0.0000   -0.5000   -0.0000 C   0  0  0  0  0  0  0  0  0  0  0  0
   -0.9135   -0.0933   -0.0000 C   0  0  0  0  0  0  0  0  0  0  0  0
   -0.1045   -1.4945   -0.0000 C   0  0  0  0  0  0  0  0  0  0  0  0
   -1.1215    0.8849   -0.0000 O   0  0  0  0  0  0  0  0  0  0  0  0
   -1.5827   -0.8364   -0.0000 O   0  0  0  0  0  0  0  0  0  0  0  0
    0.6386   -2.1637   -0.0000 O   0  0  0  0  0  0  0  0  0  0  0  0
   -1.0827   -1.7024   -0.0000 C   0  0  0  0  0  0  0  0  0  0  0  0
  1  2  1  0  0  0  0
  2  3  2  0  0  0  0
  2  4  1  0  0  0  0
  3  5  1  0  0  0  0
  4  6  2  0  0  0  0
  5  7  2  0  0  0  0
  5  8  1  0  0  0  0
  8  9  1  0  0  0  0
  8 10  1  0  0  0  0
 11  9  1  1  0  0  0
 10 12  1  0  0  0  0
 11 13  1  0  0  0  0
 11 14  1  0  0  0  0
 13 15  1  0  0  0  0
 13 16  1  6  0  0  0
 14 17  1  0  0  0  0
 15 18  1  0  0  0  0
 15 19  1  1  0  0  0
 18 20  1  0  0  0  0
 18 21  1  1  0  0  0
 19 22  1  0  0  0  0
 20 23  1  0  0  0  0
 20 24  1  1  0  0  0
 23 25  2  0  0  0  0
 24 26  1  0  0  0  0
 26 27  2  0  0  0  0
 27 28  1  0  0  0  0
 27 29  1  0  0  0  0
 28 30  2  0  0  0  0
 28 31  1  0  0  0  0
 29 32  1  6  0  0  0
 29 33  1  0  0  0  0
  6  7  1  0  0  0  0
 12 13  1  0  0  0  0
 17 18  1  0  0  0  0
 22 23  1  0  0  0  0
 31 33  1  0  0  0  0
M  END
>  <S/N>
105

>  <Compound ID>
C_109

>  <PubChem CID>
44411113

>  <Isomeric SMILES>
C[C@@]12CC[C@@H]3[C@]([C@H]1CCC(=C)[C@H]2C/C=C/4\[C@@H](COC4=O)O)(COC(O3)C5=CC(=CC=C5)Br)C

>  <IC50 (�M)>
100

>  <pIC50>
4

$$$$
C_110
Actelion Java MolfileCreator 1.0

 33 36  0  0  1  0  0  0  0  0999 V2000
    9.0619   -1.0978   -0.0000 O   0  0  0  0  0  0  0  0  0  0  0  0
    7.5702   -1.2546   -0.0000 C   0  0  0  0  0  0  0  0  0  0  0  0
    6.5665   -0.1399   -0.0000 O   0  0  0  0  0  0  0  0  0  0  0  0
    6.8202   -2.5537   -0.0000 C   0  0  0  0  0  0  0  0  0  0  0  0
    5.1962   -0.7500   -0.0000 C   0  0  0  0  0  0  0  0  0  0  0  0
    5.3529   -2.2418   -0.0000 C   0  0  0  0  0  0  0  0  0  0  0  0
    7.4303   -3.9240   -0.0000 C   0  0  0  0  0  0  0  0  0  0  0  0
    3.8971   -0.0000   -0.0000 C   0  0  0  0  0  0  0  0  0  0  0  0
    6.5486   -5.1375   -0.0000 C   0  0  0  0  0  0  0  0  0  0  0  0
    3.8971    1.5000   -0.0000 C   0  0  0  0  0  0  0  0  0  0  0  0
    7.1587   -6.5078   -0.0000 C   0  0  0  0  0  0  0  0  0  0  0  0
    2.5981    2.2500   -0.0000 C   0  0  0  0  0  0  0  0  0  0  0  0
    6.2770   -7.7213   -0.0000 C   0  0  0  0  0  0  0  0  0  0  0  0
    8.6505   -6.6646   -0.0000 C   0  0  0  0  0  0  0  0  0  0  0  0
    2.5981    3.7500   -0.0000 C   0  0  0  0  0  0  0  0  0  0  0  0
    4.7852   -7.5645   -0.0000 C   0  0  0  0  0  0  0  0  0  0  0  0
    6.8871   -9.0917   -0.0000 C   0  0  0  0  0  0  0  0  0  0  0  0
    9.2606   -8.0349   -0.0000 C   0  0  0  0  0  0  0  0  0  0  0  0
    9.5322   -5.4511   -0.0000 C   0  0  0  0  0  0  0  0  0  0  0  0
    8.0404   -5.2943   -0.0000 C   0  0  0  0  0  0  0  0  0  0  0  0
    1.2990    4.5000   -0.0000 C   0  0  0  0  0  0  0  0  0  0  0  0
    3.8971    4.5000   -0.0000 C   0  0  0  0  0  0  0  0  0  0  0  0
    8.3789   -9.2484   -0.0000 C   0  0  0  0  0  0  0  0  0  0  0  0
   10.7524   -8.1917   -0.0000 C   0  0  0  0  0  0  0  0  0  0  0  0
   11.0239   -5.6079   -0.0000 C   0  0  0  0  0  0  0  0  0  0  0  0
    1.2990    6.0000   -0.0000 C   0  0  0  0  0  0  0  0  0  0  0  0
    3.8971    6.0000   -0.0000 C   0  0  0  0  0  0  0  0  0  0  0  0
   11.6340   -6.9782   -0.0000 C   0  0  0  0  0  0  0  0  0  0  0  0
   11.3625   -9.5620   -0.0000 C   0  0  0  0  0  0  0  0  0  0  0  0
    9.8707   -9.4052   -0.0000 C   0  0  0  0  0  0  0  0  0  0  0  0
    2.5981    6.7500   -0.0000 C   0  0  0  0  0  0  0  0  0  0  0  0
   13.1258   -7.1350   -0.0000 O   0  0  0  0  0  0  0  0  0  0  0  0
   10.4808  -10.7756   -0.0000 O   0  0  0  0  0  0  0  0  0  0  0  0
  1  2  2  0  0  0  0
  2  3  1  0  0  0  0
  2  4  1  0  0  0  0
  3  5  1  0  0  0  0
  4  6  2  0  0  0  0
  4  7  1  0  0  0  0
  5  8  2  0  0  0  0
  7  9  2  0  0  0  0
  8 10  1  0  0  0  0
 11  9  1  1  0  0  0
 10 12  2  0  0  0  0
 11 13  1  0  0  0  0
 11 14  1  0  0  0  0
 12 15  1  0  0  0  0
 13 16  2  0  0  0  0
 13 17  1  0  0  0  0
 14 18  1  0  0  0  0
 14 19  1  0  0  0  0
 14 20  1  1  0  0  0
 15 21  2  0  0  0  0
 15 22  1  0  0  0  0
 17 23  1  0  0  0  0
 18 24  1  0  0  0  0
 19 25  1  0  0  0  0
 21 26  1  0  0  0  0
 22 27  2  0  0  0  0
 24 28  1  0  0  0  0
 24 29  1  0  0  0  0
 24 30  1  6  0  0  0
 26 31  2  0  0  0  0
 28 32  1  1  0  0  0
 29 33  1  0  0  0  0
  5  6  1  0  0  0  0
 18 23  1  1  0  0  0
 25 28  1  0  0  0  0
 27 31  1  0  0  0  0
M  END
>  <S/N>
106

>  <Compound ID>
C_110

>  <PubChem CID>
44411422

>  <Isomeric SMILES>
C[C@@]12CC[C@H]([C@@]([C@H]1CCC(=C)[C@H]2/C=C/C3=C/C(=C/C=C/C4=CC=CC=C4)/OC3=O)(C)CO)O

>  <IC50 (�M)>
58

>  <pIC50>
4.24

$$$$
C_111
Actelion Java MolfileCreator 1.0

 37 40  0  0  1  0  0  0  0  0999 V2000
    3.7195   -1.3849   -0.0000 O   0  0  0  0  0  0  0  0  0  0  0  0
    3.5116   -0.4067   -0.0000 C   0  0  0  0  0  0  0  0  0  0  0  0
    4.1808    0.3364   -0.0000 O   0  0  0  0  0  0  0  0  0  0  0  0
    2.5981   -0.0000   -0.0000 C   0  0  0  0  0  0  0  0  0  0  0  0
    3.6808    1.2024   -0.0000 C   0  0  0  0  0  0  0  0  0  0  0  0
    2.7026    0.9945   -0.0000 C   0  0  0  0  0  0  0  0  0  0  0  0
    1.7321   -0.5000   -0.0000 C   0  0  0  0  0  0  0  0  0  0  0  0
    4.0875    2.1160   -0.0000 C   0  0  0  0  0  0  0  0  0  0  0  0
    0.8660   -0.0000   -0.0000 C   0  0  0  0  0  0  0  0  0  0  0  0
    5.0820    2.2205   -0.0000 C   0  0  0  0  0  0  0  0  0  0  0  0
    0.0000   -0.5000   -0.0000 C   0  0  0  0  0  0  0  0  0  0  0  0
    5.4887    3.1341   -0.0000 C   0  0  0  0  0  0  0  0  0  0  0  0
    5.6698    1.4115   -0.0000 C   0  0  0  0  0  0  0  0  0  0  0  0
   -0.8660    0.0000   -0.0000 C   0  0  0  0  0  0  0  0  0  0  0  0
   -0.0000   -1.5000   -0.0000 C   0  0  0  0  0  0  0  0  0  0  0  0
    4.9010    3.9431   -0.0000 O   0  0  0  0  0  0  0  0  0  0  0  0
    6.4833    3.2386   -0.0000 C   0  0  0  0  0  0  0  0  0  0  0  0
    6.6643    1.5160   -0.0000 C   0  0  0  0  0  0  0  0  0  0  0  0
   -0.8660    1.0000   -0.0000 C   0  0  0  0  0  0  0  0  0  0  0  0
   -1.7321   -0.5000   -0.0000 C   0  0  0  0  0  0  0  0  0  0  0  0
   -0.8660   -2.0000   -0.0000 C   0  0  0  0  0  0  0  0  0  0  0  0
    0.8660   -2.0000   -0.0000 C   0  0  0  0  0  0  0  0  0  0  0  0
    0.8660   -1.0000   -0.0000 C   0  0  0  0  0  0  0  0  0  0  0  0
    5.3077    4.8566   -0.0000 C   0  0  0  0  0  0  0  0  0  0  0  0
    7.0711    2.4296   -0.0000 C   0  0  0  0  0  0  0  0  0  0  0  0
    7.2521    0.7070   -0.0000 O   0  0  0  0  0  0  0  0  0  0  0  0
   -1.7321   -1.5000   -0.0000 C   0  0  0  0  0  0  0  0  0  0  0  0
   -0.8660   -3.0000   -0.0000 C   0  0  0  0  0  0  0  0  0  0  0  0
    0.8660   -3.0000   -0.0000 C   0  0  0  0  0  0  0  0  0  0  0  0
    8.0656    2.5341   -0.0000 O   0  0  0  0  0  0  0  0  0  0  0  0
    6.8454   -0.2065   -0.0000 C   0  0  0  0  0  0  0  0  0  0  0  0
   -0.0000   -3.5000   -0.0000 C   0  0  0  0  0  0  0  0  0  0  0  0
   -1.7321   -3.5000   -0.0000 C   0  0  0  0  0  0  0  0  0  0  0  0
   -0.8660   -4.0000   -0.0000 C   0  0  0  0  0  0  0  0  0  0  0  0
    8.6534    1.7251   -0.0000 C   0  0  0  0  0  0  0  0  0  0  0  0
   -0.0000   -4.5000   -0.0000 O   0  0  0  0  0  0  0  0  0  0  0  0
   -2.5981   -3.0000   -0.0000 O   0  0  0  0  0  0  0  0  0  0  0  0
  1  2  2  0  0  0  0
  2  3  1  0  0  0  0
  2  4  1  0  0  0  0
  3  5  1  0  0  0  0
  4  6  2  0  0  0  0
  4  7  1  0  0  0  0
  5  8  2  0  0  0  0
  7  9  2  0  0  0  0
  8 10  1  0  0  0  0
 11  9  1  1  0  0  0
 10 12  2  0  0  0  0
 10 13  1  0  0  0  0
 11 14  1  0  0  0  0
 11 15  1  0  0  0  0
 12 16  1  0  0  0  0
 12 17  1  0  0  0  0
 13 18  2  0  0  0  0
 14 19  2  0  0  0  0
 14 20  1  0  0  0  0
 15 21  1  0  0  0  0
 15 22  1  0  0  0  0
 15 23  1  1  0  0  0
 16 24  1  0  0  0  0
 17 25  2  0  0  0  0
 18 26  1  0  0  0  0
 20 27  1  0  0  0  0
 21 28  1  0  0  0  0
 22 29  1  0  0  0  0
 25 30  1  0  0  0  0
 26 31  1  0  0  0  0
 28 32  1  0  0  0  0
 28 33  1  0  0  0  0
 28 34  1  6  0  0  0
 30 35  1  0  0  0  0
 32 36  1  1  0  0  0
 33 37  1  0  0  0  0
  5  6  1  0  0  0  0
 18 25  1  0  0  0  0
 21 27  1  1  0  0  0
 29 32  1  0  0  0  0
M  END
>  <S/N>
107

>  <Compound ID>
C_111

>  <PubChem CID>
44437482

>  <Isomeric SMILES>
C[C@@]12CC[C@H]([C@@]([C@H]1CCC(=C)[C@H]2/C=C/C3=C/C(=C/C4=CC(=C(C=C4OC)OC)OC)/OC3=O)(C)CO)O

>  <IC50 (�M)>
84

>  <pIC50>
4.08

$$$$
C_112
Actelion Java MolfileCreator 1.0

 34 37  0  0  1  0  0  0  0  0999 V2000
    5.5793   -2.0773   -0.0000 O   0  0  0  0  0  0  0  0  0  0  0  0
    5.2674   -0.6101   -0.0000 C   0  0  0  0  0  0  0  0  0  0  0  0
    6.2711    0.5046   -0.0000 O   0  0  0  0  0  0  0  0  0  0  0  0
    3.8971   -0.0000   -0.0000 C   0  0  0  0  0  0  0  0  0  0  0  0
    5.5211    1.8037   -0.0000 C   0  0  0  0  0  0  0  0  0  0  0  0
    4.0539    1.4918   -0.0000 C   0  0  0  0  0  0  0  0  0  0  0  0
    2.5981   -0.7500   -0.0000 C   0  0  0  0  0  0  0  0  0  0  0  0
    6.1312    3.1740   -0.0000 C   0  0  0  0  0  0  0  0  0  0  0  0
    1.2990   -0.0000   -0.0000 C   0  0  0  0  0  0  0  0  0  0  0  0
    7.6230    3.3308   -0.0000 C   0  0  0  0  0  0  0  0  0  0  0  0
    0.0000   -0.7500   -0.0000 C   0  0  0  0  0  0  0  0  0  0  0  0
    8.2331    4.7011   -0.0000 C   0  0  0  0  0  0  0  0  0  0  0  0
    8.5047    2.1172   -0.0000 C   0  0  0  0  0  0  0  0  0  0  0  0
   -1.2990    0.0000   -0.0000 C   0  0  0  0  0  0  0  0  0  0  0  0
   -0.0000   -2.2500   -0.0000 C   0  0  0  0  0  0  0  0  0  0  0  0
    9.7249    4.8579   -0.0000 C   0  0  0  0  0  0  0  0  0  0  0  0
    9.9965    2.2740   -0.0000 C   0  0  0  0  0  0  0  0  0  0  0  0
   -1.2990    1.5000   -0.0000 C   0  0  0  0  0  0  0  0  0  0  0  0
   -2.5981   -0.7500   -0.0000 C   0  0  0  0  0  0  0  0  0  0  0  0
   -1.2990   -3.0000   -0.0000 C   0  0  0  0  0  0  0  0  0  0  0  0
    1.2990   -3.0000   -0.0000 C   0  0  0  0  0  0  0  0  0  0  0  0
    1.2990   -1.5000   -0.0000 C   0  0  0  0  0  0  0  0  0  0  0  0
   10.6066    3.6443   -0.0000 C   0  0  0  0  0  0  0  0  0  0  0  0
   -2.5981   -2.2500   -0.0000 C   0  0  0  0  0  0  0  0  0  0  0  0
   -1.2990   -4.5000   -0.0000 C   0  0  0  0  0  0  0  0  0  0  0  0
    1.2990   -4.5000   -0.0000 C   0  0  0  0  0  0  0  0  0  0  0  0
   12.0984    3.8011   -0.0000 N   0  0  0  0  0  0  0  0  0  0  0  0
   -0.0000   -5.2500   -0.0000 C   0  0  0  0  0  0  0  0  0  0  0  0
   -2.5981   -5.2500   -0.0000 C   0  0  0  0  0  0  0  0  0  0  0  0
   -1.2990   -6.0000   -0.0000 C   0  0  0  0  0  0  0  0  0  0  0  0
   12.7085    5.1715   -0.0000 C   0  0  0  0  0  0  0  0  0  0  0  0
   12.9800    2.5876   -0.0000 C   0  0  0  0  0  0  0  0  0  0  0  0
   -0.0000   -6.7500   -0.0000 O   0  0  0  0  0  0  0  0  0  0  0  0
   -3.8971   -4.5000   -0.0000 O   0  0  0  0  0  0  0  0  0  0  0  0
  1  2  2  0  0  0  0
  2  3  1  0  0  0  0
  2  4  1  0  0  0  0
  3  5  1  0  0  0  0
  4  6  2  0  0  0  0
  4  7  1  0  0  0  0
  5  8  2  0  0  0  0
  7  9  2  0  0  0  0
  8 10  1  0  0  0  0
 11  9  1  1  0  0  0
 10 12  2  0  0  0  0
 10 13  1  0  0  0  0
 11 14  1  0  0  0  0
 11 15  1  0  0  0  0
 12 16  1  0  0  0  0
 13 17  2  0  0  0  0
 14 18  2  0  0  0  0
 14 19  1  0  0  0  0
 15 20  1  0  0  0  0
 15 21  1  0  0  0  0
 15 22  1  1  0  0  0
 16 23  2  0  0  0  0
 19 24  1  0  0  0  0
 20 25  1  0  0  0  0
 21 26  1  0  0  0  0
 23 27  1  0  0  0  0
 25 28  1  0  0  0  0
 25 29  1  0  0  0  0
 25 30  1  6  0  0  0
 27 31  1  0  0  0  0
 27 32  1  0  0  0  0
 28 33  1  1  0  0  0
 29 34  1  0  0  0  0
  5  6  1  0  0  0  0
 17 23  1  0  0  0  0
 20 24  1  1  0  0  0
 26 28  1  0  0  0  0
M  END
>  <S/N>
108

>  <Compound ID>
C_112

>  <PubChem CID>
44437483

>  <Isomeric SMILES>
C[C@@]12CC[C@H]([C@@]([C@H]1CCC(=C)[C@H]2/C=C/C3=C/C(=C/C4=CC=C(C=C4)N(C)C)/OC3=O)(C)CO)O

>  <IC50 (�M)>
70

>  <pIC50>
4.15

$$$$
C_113
Actelion Java MolfileCreator 1.0

 30 33  0  0  1  0  0  0  0  0999 V2000
    3.7195   -1.3849   -0.0000 O   0  0  0  0  0  0  0  0  0  0  0  0
    3.5116   -0.4067   -0.0000 C   0  0  0  0  0  0  0  0  0  0  0  0
    4.1808    0.3364   -0.0000 O   0  0  0  0  0  0  0  0  0  0  0  0
    2.5981   -0.0000   -0.0000 C   0  0  0  0  0  0  0  0  0  0  0  0
    3.6808    1.2024   -0.0000 C   0  0  0  0  0  0  0  0  0  0  0  0
    2.7026    0.9945   -0.0000 C   0  0  0  0  0  0  0  0  0  0  0  0
    1.7321   -0.5000   -0.0000 C   0  0  0  0  0  0  0  0  0  0  0  0
    4.0875    2.1160   -0.0000 C   0  0  0  0  0  0  0  0  0  0  0  0
    0.8660   -0.0000   -0.0000 C   0  0  0  0  0  0  0  0  0  0  0  0
    5.0820    2.2205   -0.0000 C   0  0  0  0  0  0  0  0  0  0  0  0
    0.0000   -0.5000   -0.0000 C   0  0  0  0  0  0  0  0  0  0  0  0
    5.5820    3.0865   -0.0000 O   0  0  0  0  0  0  0  0  0  0  0  0
    5.7511    1.4774   -0.0000 C   0  0  0  0  0  0  0  0  0  0  0  0
   -0.8660    0.0000   -0.0000 C   0  0  0  0  0  0  0  0  0  0  0  0
   -0.0000   -1.5000   -0.0000 C   0  0  0  0  0  0  0  0  0  0  0  0
    6.5602    2.8786   -0.0000 C   0  0  0  0  0  0  0  0  0  0  0  0
    6.6647    1.8841   -0.0000 C   0  0  0  0  0  0  0  0  0  0  0  0
   -0.8660    1.0000   -0.0000 C   0  0  0  0  0  0  0  0  0  0  0  0
   -1.7321   -0.5000   -0.0000 C   0  0  0  0  0  0  0  0  0  0  0  0
   -0.8660   -2.0000   -0.0000 C   0  0  0  0  0  0  0  0  0  0  0  0
    0.8660   -2.0000   -0.0000 C   0  0  0  0  0  0  0  0  0  0  0  0
    0.8660   -1.0000   -0.0000 C   0  0  0  0  0  0  0  0  0  0  0  0
   -1.7321   -1.5000   -0.0000 C   0  0  0  0  0  0  0  0  0  0  0  0
   -0.8660   -3.0000   -0.0000 C   0  0  0  0  0  0  0  0  0  0  0  0
    0.8660   -3.0000   -0.0000 C   0  0  0  0  0  0  0  0  0  0  0  0
   -0.0000   -3.5000   -0.0000 C   0  0  0  0  0  0  0  0  0  0  0  0
   -1.7321   -3.5000   -0.0000 C   0  0  0  0  0  0  0  0  0  0  0  0
   -0.8660   -4.0000   -0.0000 C   0  0  0  0  0  0  0  0  0  0  0  0
   -0.0000   -4.5000   -0.0000 O   0  0  0  0  0  0  0  0  0  0  0  0
   -2.5981   -3.0000   -0.0000 O   0  0  0  0  0  0  0  0  0  0  0  0
  1  2  2  0  0  0  0
  2  3  1  0  0  0  0
  2  4  1  0  0  0  0
  3  5  1  0  0  0  0
  4  6  2  0  0  0  0
  4  7  1  0  0  0  0
  5  8  2  0  0  0  0
  7  9  2  0  0  0  0
  8 10  1  0  0  0  0
 11  9  1  1  0  0  0
 10 12  1  0  0  0  0
 10 13  2  0  0  0  0
 11 14  1  0  0  0  0
 11 15  1  0  0  0  0
 12 16  1  0  0  0  0
 13 17  1  0  0  0  0
 14 18  2  0  0  0  0
 14 19  1  0  0  0  0
 15 20  1  0  0  0  0
 15 21  1  0  0  0  0
 15 22  1  1  0  0  0
 19 23  1  0  0  0  0
 20 24  1  0  0  0  0
 21 25  1  0  0  0  0
 24 26  1  0  0  0  0
 24 27  1  0  0  0  0
 24 28  1  6  0  0  0
 26 29  1  1  0  0  0
 27 30  1  0  0  0  0
  5  6  1  0  0  0  0
 16 17  2  0  0  0  0
 20 23  1  1  0  0  0
 25 26  1  0  0  0  0
M  END
>  <S/N>
109

>  <Compound ID>
C_113

>  <PubChem CID>
44437486

>  <Isomeric SMILES>
C[C@@]12CC[C@H]([C@@]([C@H]1CCC(=C)[C@H]2/C=C/C3=C/C(=C/C4=CC=CO4)/OC3=O)(C)CO)O

>  <IC50 (�M)>
100

>  <pIC50>
4

$$$$
C_114
Actelion Java MolfileCreator 1.0

 50 54  0  0  1  0  0  0  0  0999 V2000
   13.9255    3.1740   -0.0000 O   0  0  0  0  0  0  0  0  0  0  0  0
   13.3154    1.8037   -0.0000 C   0  0  0  0  0  0  0  0  0  0  0  0
   11.8481    1.4918   -0.0000 O   0  0  0  0  0  0  0  0  0  0  0  0
   14.0654    0.5046   -0.0000 C   0  0  0  0  0  0  0  0  0  0  0  0
   11.6913   -0.0000   -0.0000 C   0  0  0  0  0  0  0  0  0  0  0  0
   13.0617   -0.6101   -0.0000 C   0  0  0  0  0  0  0  0  0  0  0  0
   15.5571    0.3478   -0.0000 C   0  0  0  0  0  0  0  0  0  0  0  0
   10.3923   -0.7500   -0.0000 C   0  0  0  0  0  0  0  0  0  0  0  0
   16.1672   -1.0225   -0.0000 C   0  0  0  0  0  0  0  0  0  0  0  0
   10.3923   -2.2500   -0.0000 C   0  0  0  0  0  0  0  0  0  0  0  0
   17.6590   -1.1793   -0.0000 C   0  0  0  0  0  0  0  0  0  0  0  0
    9.0933   -3.0000   -0.0000 C   0  0  0  0  0  0  0  0  0  0  0  0
   11.6913   -3.0000   -0.0000 C   0  0  0  0  0  0  0  0  0  0  0  0
   18.2691   -2.5496   -0.0000 C   0  0  0  0  0  0  0  0  0  0  0  0
   18.5407    0.0342   -0.0000 C   0  0  0  0  0  0  0  0  0  0  0  0
    9.0933   -4.5000   -0.0000 C   0  0  0  0  0  0  0  0  0  0  0  0
   17.3875   -3.7631   -0.0000 C   0  0  0  0  0  0  0  0  0  0  0  0
   19.7609   -2.7064   -0.0000 C   0  0  0  0  0  0  0  0  0  0  0  0
   20.0325   -0.1226   -0.0000 C   0  0  0  0  0  0  0  0  0  0  0  0
   17.9306    1.4046   -0.0000 C   0  0  0  0  0  0  0  0  0  0  0  0
   17.0489    0.1910   -0.0000 C   0  0  0  0  0  0  0  0  0  0  0  0
    7.7942   -5.2500   -0.0000 C   0  0  0  0  0  0  0  0  0  0  0  0
   20.6426   -1.4929   -0.0000 C   0  0  0  0  0  0  0  0  0  0  0  0
   20.9142    1.0910   -0.0000 C   0  0  0  0  0  0  0  0  0  0  0  0
   18.8123    2.6181   -0.0000 C   0  0  0  0  0  0  0  0  0  0  0  0
    7.7942   -6.7500   -0.0000 C   0  0  0  0  0  0  0  0  0  0  0  0
   20.3041    2.4613   -0.0000 C   0  0  0  0  0  0  0  0  0  0  0  0
   22.4059    0.9342   -0.0000 C   0  0  0  0  0  0  0  0  0  0  0  0
   21.7958    2.3045   -0.0000 C   0  0  0  0  0  0  0  0  0  0  0  0
    6.4952   -7.5000   -0.0000 C   0  0  0  0  0  0  0  0  0  0  0  0
   21.1857    3.6748   -0.0000 O   0  0  0  0  0  0  0  0  0  0  0  0
   23.0161   -0.4361   -0.0000 O   0  0  0  0  0  0  0  0  0  0  0  0
    6.4952   -9.0000   -0.0000 C   0  0  0  0  0  0  0  0  0  0  0  0
   22.6775    3.5180   -0.0000 C   0  0  0  0  0  0  0  0  0  0  0  0
   24.5078   -0.5929   -0.0000 C   0  0  0  0  0  0  0  0  0  0  0  0
    5.1962   -9.7500   -0.0000 C   0  0  0  0  0  0  0  0  0  0  0  0
   23.2876    2.1477   -0.0000 O   0  0  0  0  0  0  0  0  0  0  0  0
   23.5592    4.7315   -0.0000 C   0  0  0  0  0  0  0  0  0  0  0  0
   25.1179   -1.9633   -0.0000 O   0  0  0  0  0  0  0  0  0  0  0  0
   25.3895    0.6206   -0.0000 C   0  0  0  0  0  0  0  0  0  0  0  0
   25.0510    4.5748   -0.0000 C   0  0  0  0  0  0  0  0  0  0  0  0
   22.9491    6.1019   -0.0000 C   0  0  0  0  0  0  0  0  0  0  0  0
   26.8813    0.4638   -0.0000 C   0  0  0  0  0  0  0  0  0  0  0  0
   24.7794    1.9909   -0.0000 C   0  0  0  0  0  0  0  0  0  0  0  0
   25.9327    5.7883   -0.0000 N   0  0  0  0  0  0  0  0  0  0  0  0
   23.8308    7.3154   -0.0000 C   0  0  0  0  0  0  0  0  0  0  0  0
   27.7630    1.6773   -0.0000 N   0  0  0  0  0  0  0  0  0  0  0  0
   25.6611    3.2044   -0.0000 C   0  0  0  0  0  0  0  0  0  0  0  0
   25.3226    7.1586   -0.0000 C   0  0  0  0  0  0  0  0  0  0  0  0
   27.1529    3.0476   -0.0000 C   0  0  0  0  0  0  0  0  0  0  0  0
  1  2  2  0  0  0  0
  2  3  1  0  0  0  0
  2  4  1  0  0  0  0
  3  5  1  0  0  0  0
  4  6  2  0  0  0  0
  4  7  1  0  0  0  0
  5  8  2  0  0  0  0
  7  9  2  0  0  0  0
  8 10  1  0  0  0  0
 11  9  1  1  0  0  0
 10 12  2  0  0  0  0
 10 13  1  0  0  0  0
 11 14  1  0  0  0  0
 11 15  1  0  0  0  0
 12 16  1  0  0  0  0
 14 17  2  0  0  0  0
 14 18  1  0  0  0  0
 15 19  1  0  0  0  0
 15 20  1  0  0  0  0
 15 21  1  1  0  0  0
 16 22  1  0  0  0  0
 18 23  1  0  0  0  0
 19 24  1  0  0  0  0
 20 25  1  0  0  0  0
 22 26  1  0  0  0  0
 24 27  1  0  0  0  0
 24 28  1  0  0  0  0
 24 29  1  6  0  0  0
 26 30  1  0  0  0  0
 27 31  1  1  0  0  0
 28 32  1  0  0  0  0
 30 33  2  0  0  0  0
 31 34  1  0  0  0  0
 32 35  1  0  0  0  0
 33 36  1  0  0  0  0
 34 37  2  0  0  0  0
 34 38  1  0  0  0  0
 35 39  2  0  0  0  0
 35 40  1  0  0  0  0
 38 41  2  0  0  0  0
 38 42  1  0  0  0  0
 40 43  2  0  0  0  0
 40 44  1  0  0  0  0
 41 45  1  0  0  0  0
 42 46  2  0  0  0  0
 43 47  1  0  0  0  0
 44 48  2  0  0  0  0
 45 49  2  0  0  0  0
 47 50  2  0  0  0  0
  5  6  1  0  0  0  0
 19 23  1  1  0  0  0
 25 27  1  0  0  0  0
 46 49  1  0  0  0  0
 48 50  1  0  0  0  0
M  END
>  <S/N>
110

>  <Compound ID>
C_114

>  <PubChem CID>
44437487

>  <Isomeric SMILES>
C/C=C/CCC/C=C(\C)/C=C/1\C=C(C(=O)O1)/C=C/[C@@H]2C(=C)CC[C@H]3[C@]2(CC[C@H]([C@@]3(C)COC(=O)C4=CN=CC=C4)OC(=O)C5=CN=CC=C5)C

>  <IC50 (�M)>
28

>  <pIC50>
4.55

$$$$
C_115
Actelion Java MolfileCreator 1.0

 47 52  0  0  1  0  0  0  0  0999 V2000
   -4.5856   -2.1151   -0.0000 O   0  0  0  0  0  0  0  0  0  0  0  0
   -4.3776   -3.0933   -0.0000 C   0  0  0  0  0  0  0  0  0  0  0  0
   -5.0468   -3.8364   -0.0000 O   0  0  0  0  0  0  0  0  0  0  0  0
   -3.4641   -3.5000   -0.0000 C   0  0  0  0  0  0  0  0  0  0  0  0
   -4.5468   -4.7024   -0.0000 C   0  0  0  0  0  0  0  0  0  0  0  0
   -3.5686   -4.4945   -0.0000 C   0  0  0  0  0  0  0  0  0  0  0  0
   -2.5981   -3.0000   -0.0000 C   0  0  0  0  0  0  0  0  0  0  0  0
   -4.9535   -5.6160   -0.0000 C   0  0  0  0  0  0  0  0  0  0  0  0
   -1.7321   -3.5000   -0.0000 C   0  0  0  0  0  0  0  0  0  0  0  0
   -4.3657   -6.4250   -0.0000 C   0  0  0  0  0  0  0  0  0  0  0  0
   -0.8660   -3.0000   -0.0000 C   0  0  0  0  0  0  0  0  0  0  0  0
   -4.7725   -7.3385   -0.0000 C   0  0  0  0  0  0  0  0  0  0  0  0
   -3.3712   -6.3205   -0.0000 C   0  0  0  0  0  0  0  0  0  0  0  0
   -0.0000   -3.5000   -0.0000 C   0  0  0  0  0  0  0  0  0  0  0  0
   -0.8660   -2.0000   -0.0000 C   0  0  0  0  0  0  0  0  0  0  0  0
   -4.1847   -8.1476   -0.0000 C   0  0  0  0  0  0  0  0  0  0  0  0
   -2.7834   -7.1295   -0.0000 C   0  0  0  0  0  0  0  0  0  0  0  0
   -0.0000   -4.5000   -0.0000 C   0  0  0  0  0  0  0  0  0  0  0  0
    0.8660   -3.0000   -0.0000 C   0  0  0  0  0  0  0  0  0  0  0  0
   -0.0000   -1.5000   -0.0000 C   0  0  0  0  0  0  0  0  0  0  0  0
   -1.7321   -1.5000   -0.0000 C   0  0  0  0  0  0  0  0  0  0  0  0
   -1.7321   -2.5000   -0.0000 C   0  0  0  0  0  0  0  0  0  0  0  0
   -3.1902   -8.0430   -0.0000 C   0  0  0  0  0  0  0  0  0  0  0  0
    0.8660   -2.0000   -0.0000 C   0  0  0  0  0  0  0  0  0  0  0  0
    0.0000   -0.5000   -0.0000 C   0  0  0  0  0  0  0  0  0  0  0  0
   -1.7321   -0.5000   -0.0000 C   0  0  0  0  0  0  0  0  0  0  0  0
   -0.8660   -0.0000   -0.0000 C   0  0  0  0  0  0  0  0  0  0  0  0
    0.8660   -0.0000   -0.0000 C   0  0  0  0  0  0  0  0  0  0  0  0
   -0.0000    0.5000   -0.0000 C   0  0  0  0  0  0  0  0  0  0  0  0
   -0.8660    1.0000   -0.0000 O   0  0  0  0  0  0  0  0  0  0  0  0
    1.7321   -0.5000   -0.0000 O   0  0  0  0  0  0  0  0  0  0  0  0
    0.0000    1.5000   -0.0000 C   0  0  0  0  0  0  0  0  0  0  0  0
    2.5981   -0.0000   -0.0000 C   0  0  0  0  0  0  0  0  0  0  0  0
    0.8660    1.0000   -0.0000 O   0  0  0  0  0  0  0  0  0  0  0  0
    0.0000    2.5000   -0.0000 C   0  0  0  0  0  0  0  0  0  0  0  0
    3.4641   -0.5000   -0.0000 O   0  0  0  0  0  0  0  0  0  0  0  0
    2.5981    1.0000   -0.0000 C   0  0  0  0  0  0  0  0  0  0  0  0
    0.8660    3.0000   -0.0000 C   0  0  0  0  0  0  0  0  0  0  0  0
   -0.8660    3.0000   -0.0000 C   0  0  0  0  0  0  0  0  0  0  0  0
    3.4641    1.5000   -0.0000 C   0  0  0  0  0  0  0  0  0  0  0  0
    1.7321    1.5000   -0.0000 C   0  0  0  0  0  0  0  0  0  0  0  0
    0.8660    4.0000   -0.0000 N   0  0  0  0  0  0  0  0  0  0  0  0
   -0.8660    4.0000   -0.0000 C   0  0  0  0  0  0  0  0  0  0  0  0
    3.4641    2.5000   -0.0000 N   0  0  0  0  0  0  0  0  0  0  0  0
    1.7321    2.5000   -0.0000 C   0  0  0  0  0  0  0  0  0  0  0  0
    0.0000    4.5000   -0.0000 C   0  0  0  0  0  0  0  0  0  0  0  0
    2.5981    3.0000   -0.0000 C   0  0  0  0  0  0  0  0  0  0  0  0
  1  2  2  0  0  0  0
  2  3  1  0  0  0  0
  2  4  1  0  0  0  0
  3  5  1  0  0  0  0
  4  6  2  0  0  0  0
  4  7  1  0  0  0  0
  5  8  2  0  0  0  0
  7  9  2  0  0  0  0
  8 10  1  0  0  0  0
 11  9  1  1  0  0  0
 10 12  2  0  0  0  0
 10 13  1  0  0  0  0
 11 14  1  0  0  0  0
 11 15  1  0  0  0  0
 12 16  1  0  0  0  0
 13 17  2  0  0  0  0
 14 18  2  0  0  0  0
 14 19  1  0  0  0  0
 15 20  1  0  0  0  0
 15 21  1  0  0  0  0
 15 22  1  1  0  0  0
 16 23  2  0  0  0  0
 19 24  1  0  0  0  0
 20 25  1  0  0  0  0
 21 26  1  0  0  0  0
 25 27  1  0  0  0  0
 25 28  1  0  0  0  0
 25 29  1  6  0  0  0
 27 30  1  1  0  0  0
 28 31  1  0  0  0  0
 30 32  1  0  0  0  0
 31 33  1  0  0  0  0
 32 34  2  0  0  0  0
 32 35  1  0  0  0  0
 33 36  2  0  0  0  0
 33 37  1  0  0  0  0
 35 38  2  0  0  0  0
 35 39  1  0  0  0  0
 37 40  2  0  0  0  0
 37 41  1  0  0  0  0
 38 42  1  0  0  0  0
 39 43  2  0  0  0  0
 40 44  1  0  0  0  0
 41 45  2  0  0  0  0
 42 46  2  0  0  0  0
 44 47  2  0  0  0  0
  5  6  1  0  0  0  0
 17 23  1  0  0  0  0
 20 24  1  1  0  0  0
 26 27  1  0  0  0  0
 43 46  1  0  0  0  0
 45 47  1  0  0  0  0
M  END
>  <S/N>
111

>  <Compound ID>
C_115

>  <PubChem CID>
44437488

>  <Isomeric SMILES>
C[C@@]12CC[C@H]([C@@]([C@H]1CCC(=C)[C@H]2/C=C/C3=C/C(=C\C4=CC=CC=C4)/OC3=O)(C)COC(=O)C5=CN=CC=C5)OC(=O)C6=CN=CC=C6

>  <IC50 (�M)>
16

>  <pIC50>
4.8

$$$$
C_116
Actelion Java MolfileCreator 1.0

 48 53  0  0  1  0  0  0  0  0999 V2000
   -7.6682   -0.0777   -0.0000 Cl  0  0  0  0  0  0  0  0  0  0  0  0
   -7.2615   -0.9912   -0.0000 C   0  0  0  0  0  0  0  0  0  0  0  0
   -7.8493   -1.8003   -0.0000 C   0  0  0  0  0  0  0  0  0  0  0  0
   -6.2670   -1.0958   -0.0000 C   0  0  0  0  0  0  0  0  0  0  0  0
   -7.4426   -2.7138   -0.0000 C   0  0  0  0  0  0  0  0  0  0  0  0
   -5.8603   -2.0093   -0.0000 C   0  0  0  0  0  0  0  0  0  0  0  0
   -6.4480   -2.8183   -0.0000 C   0  0  0  0  0  0  0  0  0  0  0  0
   -6.0413   -3.7319   -0.0000 C   0  0  0  0  0  0  0  0  0  0  0  0
   -5.0468   -3.8364   -0.0000 C   0  0  0  0  0  0  0  0  0  0  0  0
   -4.5468   -4.7024   -0.0000 O   0  0  0  0  0  0  0  0  0  0  0  0
   -4.3776   -3.0933   -0.0000 C   0  0  0  0  0  0  0  0  0  0  0  0
   -3.5686   -4.4945   -0.0000 C   0  0  0  0  0  0  0  0  0  0  0  0
   -3.4641   -3.5000   -0.0000 C   0  0  0  0  0  0  0  0  0  0  0  0
   -2.8255   -5.1637   -0.0000 O   0  0  0  0  0  0  0  0  0  0  0  0
   -2.5981   -3.0000   -0.0000 C   0  0  0  0  0  0  0  0  0  0  0  0
   -1.7321   -3.5000   -0.0000 C   0  0  0  0  0  0  0  0  0  0  0  0
   -0.8660   -3.0000   -0.0000 C   0  0  0  0  0  0  0  0  0  0  0  0
   -0.0000   -3.5000   -0.0000 C   0  0  0  0  0  0  0  0  0  0  0  0
   -0.8660   -2.0000   -0.0000 C   0  0  0  0  0  0  0  0  0  0  0  0
   -0.0000   -4.5000   -0.0000 C   0  0  0  0  0  0  0  0  0  0  0  0
    0.8660   -3.0000   -0.0000 C   0  0  0  0  0  0  0  0  0  0  0  0
   -0.0000   -1.5000   -0.0000 C   0  0  0  0  0  0  0  0  0  0  0  0
   -1.7321   -1.5000   -0.0000 C   0  0  0  0  0  0  0  0  0  0  0  0
   -1.7321   -2.5000   -0.0000 C   0  0  0  0  0  0  0  0  0  0  0  0
    0.8660   -2.0000   -0.0000 C   0  0  0  0  0  0  0  0  0  0  0  0
    0.0000   -0.5000   -0.0000 C   0  0  0  0  0  0  0  0  0  0  0  0
   -1.7321   -0.5000   -0.0000 C   0  0  0  0  0  0  0  0  0  0  0  0
   -0.8660   -0.0000   -0.0000 C   0  0  0  0  0  0  0  0  0  0  0  0
    0.8660   -0.0000   -0.0000 C   0  0  0  0  0  0  0  0  0  0  0  0
   -0.0000    0.5000   -0.0000 C   0  0  0  0  0  0  0  0  0  0  0  0
   -0.8660    1.0000   -0.0000 O   0  0  0  0  0  0  0  0  0  0  0  0
    1.7321   -0.5000   -0.0000 O   0  0  0  0  0  0  0  0  0  0  0  0
    0.0000    1.5000   -0.0000 C   0  0  0  0  0  0  0  0  0  0  0  0
    2.5981   -0.0000   -0.0000 C   0  0  0  0  0  0  0  0  0  0  0  0
    0.8660    1.0000   -0.0000 O   0  0  0  0  0  0  0  0  0  0  0  0
    0.0000    2.5000   -0.0000 C   0  0  0  0  0  0  0  0  0  0  0  0
    3.4641   -0.5000   -0.0000 O   0  0  0  0  0  0  0  0  0  0  0  0
    2.5981    1.0000   -0.0000 C   0  0  0  0  0  0  0  0  0  0  0  0
    0.8660    3.0000   -0.0000 C   0  0  0  0  0  0  0  0  0  0  0  0
   -0.8660    3.0000   -0.0000 C   0  0  0  0  0  0  0  0  0  0  0  0
    3.4641    1.5000   -0.0000 C   0  0  0  0  0  0  0  0  0  0  0  0
    1.7321    1.5000   -0.0000 C   0  0  0  0  0  0  0  0  0  0  0  0
    0.8660    4.0000   -0.0000 N   0  0  0  0  0  0  0  0  0  0  0  0
   -0.8660    4.0000   -0.0000 C   0  0  0  0  0  0  0  0  0  0  0  0
    3.4641    2.5000   -0.0000 N   0  0  0  0  0  0  0  0  0  0  0  0
    1.7321    2.5000   -0.0000 C   0  0  0  0  0  0  0  0  0  0  0  0
    0.0000    4.5000   -0.0000 C   0  0  0  0  0  0  0  0  0  0  0  0
    2.5981    3.0000   -0.0000 C   0  0  0  0  0  0  0  0  0  0  0  0
  1  2  1  0  0  0  0
  2  3  2  0  0  0  0
  2  4  1  0  0  0  0
  3  5  1  0  0  0  0
  4  6  2  0  0  0  0
  5  7  2  0  0  0  0
  7  8  1  0  0  0  0
  8  9  2  0  0  0  0
  9 10  1  0  0  0  0
  9 11  1  0  0  0  0
 10 12  1  0  0  0  0
 11 13  2  0  0  0  0
 12 14  2  0  0  0  0
 13 15  1  0  0  0  0
 15 16  2  0  0  0  0
 17 16  1  1  0  0  0
 17 18  1  0  0  0  0
 17 19  1  0  0  0  0
 18 20  2  0  0  0  0
 18 21  1  0  0  0  0
 19 22  1  0  0  0  0
 19 23  1  0  0  0  0
 19 24  1  1  0  0  0
 21 25  1  0  0  0  0
 22 26  1  0  0  0  0
 23 27  1  0  0  0  0
 26 28  1  0  0  0  0
 26 29  1  0  0  0  0
 26 30  1  6  0  0  0
 28 31  1  1  0  0  0
 29 32  1  0  0  0  0
 31 33  1  0  0  0  0
 32 34  1  0  0  0  0
 33 35  2  0  0  0  0
 33 36  1  0  0  0  0
 34 37  2  0  0  0  0
 34 38  1  0  0  0  0
 36 39  2  0  0  0  0
 36 40  1  0  0  0  0
 38 41  2  0  0  0  0
 38 42  1  0  0  0  0
 39 43  1  0  0  0  0
 40 44  2  0  0  0  0
 41 45  1  0  0  0  0
 42 46  2  0  0  0  0
 43 47  2  0  0  0  0
 45 48  2  0  0  0  0
  6  7  1  0  0  0  0
 12 13  1  0  0  0  0
 22 25  1  1  0  0  0
 27 28  1  0  0  0  0
 44 47  1  0  0  0  0
 46 48  1  0  0  0  0
M  END
>  <S/N>
112

>  <Compound ID>
C_116

>  <PubChem CID>
44437489

>  <Isomeric SMILES>
C[C@@]12CC[C@H]([C@@]([C@H]1CCC(=C)[C@H]2/C=C/C3=C/C(=C\C4=CC=C(C=C4)Cl)/OC3=O)(C)COC(=O)C5=CN=CC=C5)OC(=O)C6=CN=CC=C6

>  <IC50 (�M)>
6

>  <pIC50>
5.22

$$$$
C_117
Actelion Java MolfileCreator 1.0

 48 53  0  0  1  0  0  0  0  0999 V2000
   -8.8438   -1.6957   -0.0000 Br  0  0  0  0  0  0  0  0  0  0  0  0
   -7.8493   -1.8003   -0.0000 C   0  0  0  0  0  0  0  0  0  0  0  0
   -7.4426   -2.7138   -0.0000 C   0  0  0  0  0  0  0  0  0  0  0  0
   -7.2615   -0.9912   -0.0000 C   0  0  0  0  0  0  0  0  0  0  0  0
   -6.4480   -2.8183   -0.0000 C   0  0  0  0  0  0  0  0  0  0  0  0
   -6.2670   -1.0958   -0.0000 C   0  0  0  0  0  0  0  0  0  0  0  0
   -5.8603   -2.0093   -0.0000 C   0  0  0  0  0  0  0  0  0  0  0  0
   -6.0413   -3.7319   -0.0000 C   0  0  0  0  0  0  0  0  0  0  0  0
   -5.0468   -3.8364   -0.0000 C   0  0  0  0  0  0  0  0  0  0  0  0
   -4.5468   -4.7024   -0.0000 O   0  0  0  0  0  0  0  0  0  0  0  0
   -4.3776   -3.0933   -0.0000 C   0  0  0  0  0  0  0  0  0  0  0  0
   -3.5686   -4.4945   -0.0000 C   0  0  0  0  0  0  0  0  0  0  0  0
   -3.4641   -3.5000   -0.0000 C   0  0  0  0  0  0  0  0  0  0  0  0
   -2.8255   -5.1637   -0.0000 O   0  0  0  0  0  0  0  0  0  0  0  0
   -2.5981   -3.0000   -0.0000 C   0  0  0  0  0  0  0  0  0  0  0  0
   -1.7321   -3.5000   -0.0000 C   0  0  0  0  0  0  0  0  0  0  0  0
   -0.8660   -3.0000   -0.0000 C   0  0  0  0  0  0  0  0  0  0  0  0
   -0.0000   -3.5000   -0.0000 C   0  0  0  0  0  0  0  0  0  0  0  0
   -0.8660   -2.0000   -0.0000 C   0  0  0  0  0  0  0  0  0  0  0  0
   -0.0000   -4.5000   -0.0000 C   0  0  0  0  0  0  0  0  0  0  0  0
    0.8660   -3.0000   -0.0000 C   0  0  0  0  0  0  0  0  0  0  0  0
   -0.0000   -1.5000   -0.0000 C   0  0  0  0  0  0  0  0  0  0  0  0
   -1.7321   -1.5000   -0.0000 C   0  0  0  0  0  0  0  0  0  0  0  0
   -1.7321   -2.5000   -0.0000 C   0  0  0  0  0  0  0  0  0  0  0  0
    0.8660   -2.0000   -0.0000 C   0  0  0  0  0  0  0  0  0  0  0  0
    0.0000   -0.5000   -0.0000 C   0  0  0  0  0  0  0  0  0  0  0  0
   -1.7321   -0.5000   -0.0000 C   0  0  0  0  0  0  0  0  0  0  0  0
   -0.8660   -0.0000   -0.0000 C   0  0  0  0  0  0  0  0  0  0  0  0
    0.8660   -0.0000   -0.0000 C   0  0  0  0  0  0  0  0  0  0  0  0
   -0.0000    0.5000   -0.0000 C   0  0  0  0  0  0  0  0  0  0  0  0
   -0.8660    1.0000   -0.0000 O   0  0  0  0  0  0  0  0  0  0  0  0
    1.7321   -0.5000   -0.0000 O   0  0  0  0  0  0  0  0  0  0  0  0
    0.0000    1.5000   -0.0000 C   0  0  0  0  0  0  0  0  0  0  0  0
    2.5981   -0.0000   -0.0000 C   0  0  0  0  0  0  0  0  0  0  0  0
    0.8660    1.0000   -0.0000 O   0  0  0  0  0  0  0  0  0  0  0  0
    0.0000    2.5000   -0.0000 C   0  0  0  0  0  0  0  0  0  0  0  0
    3.4641   -0.5000   -0.0000 O   0  0  0  0  0  0  0  0  0  0  0  0
    2.5981    1.0000   -0.0000 C   0  0  0  0  0  0  0  0  0  0  0  0
    0.8660    3.0000   -0.0000 C   0  0  0  0  0  0  0  0  0  0  0  0
   -0.8660    3.0000   -0.0000 C   0  0  0  0  0  0  0  0  0  0  0  0
    3.4641    1.5000   -0.0000 C   0  0  0  0  0  0  0  0  0  0  0  0
    1.7321    1.5000   -0.0000 C   0  0  0  0  0  0  0  0  0  0  0  0
    0.8660    4.0000   -0.0000 N   0  0  0  0  0  0  0  0  0  0  0  0
   -0.8660    4.0000   -0.0000 C   0  0  0  0  0  0  0  0  0  0  0  0
    3.4641    2.5000   -0.0000 N   0  0  0  0  0  0  0  0  0  0  0  0
    1.7321    2.5000   -0.0000 C   0  0  0  0  0  0  0  0  0  0  0  0
    0.0000    4.5000   -0.0000 C   0  0  0  0  0  0  0  0  0  0  0  0
    2.5981    3.0000   -0.0000 C   0  0  0  0  0  0  0  0  0  0  0  0
  1  2  1  0  0  0  0
  2  3  2  0  0  0  0
  2  4  1  0  0  0  0
  3  5  1  0  0  0  0
  4  6  2  0  0  0  0
  5  7  2  0  0  0  0
  5  8  1  0  0  0  0
  8  9  2  0  0  0  0
  9 10  1  0  0  0  0
  9 11  1  0  0  0  0
 10 12  1  0  0  0  0
 11 13  2  0  0  0  0
 12 14  2  0  0  0  0
 13 15  1  0  0  0  0
 15 16  2  0  0  0  0
 17 16  1  1  0  0  0
 17 18  1  0  0  0  0
 17 19  1  0  0  0  0
 18 20  2  0  0  0  0
 18 21  1  0  0  0  0
 19 22  1  0  0  0  0
 19 23  1  0  0  0  0
 19 24  1  1  0  0  0
 21 25  1  0  0  0  0
 22 26  1  0  0  0  0
 23 27  1  0  0  0  0
 26 28  1  0  0  0  0
 26 29  1  0  0  0  0
 26 30  1  6  0  0  0
 28 31  1  1  0  0  0
 29 32  1  0  0  0  0
 31 33  1  0  0  0  0
 32 34  1  0  0  0  0
 33 35  2  0  0  0  0
 33 36  1  0  0  0  0
 34 37  2  0  0  0  0
 34 38  1  0  0  0  0
 36 39  2  0  0  0  0
 36 40  1  0  0  0  0
 38 41  2  0  0  0  0
 38 42  1  0  0  0  0
 39 43  1  0  0  0  0
 40 44  2  0  0  0  0
 41 45  1  0  0  0  0
 42 46  2  0  0  0  0
 43 47  2  0  0  0  0
 45 48  2  0  0  0  0
  6  7  1  0  0  0  0
 12 13  1  0  0  0  0
 22 25  1  1  0  0  0
 27 28  1  0  0  0  0
 44 47  1  0  0  0  0
 46 48  1  0  0  0  0
M  END
>  <S/N>
113

>  <Compound ID>
C_117

>  <PubChem CID>
44437490

>  <Isomeric SMILES>
C[C@@]12CC[C@H]([C@@]([C@H]1CCC(=C)[C@H]2/C=C/C3=C/C(=C\C4=CC(=CC=C4)Br)/OC3=O)(C)COC(=O)C5=CN=CC=C5)OC(=O)C6=CN=CC=C6

>  <IC50 (�M)>
14

>  <pIC50>
4.85

$$$$
C_118
Actelion Java MolfileCreator 1.0

 50 55  0  0  1  0  0  0  0  0999 V2000
   -4.5856   -2.1151   -0.0000 O   0  0  0  0  0  0  0  0  0  0  0  0
   -4.3776   -3.0933   -0.0000 C   0  0  0  0  0  0  0  0  0  0  0  0
   -5.0468   -3.8364   -0.0000 O   0  0  0  0  0  0  0  0  0  0  0  0
   -3.4641   -3.5000   -0.0000 C   0  0  0  0  0  0  0  0  0  0  0  0
   -4.5468   -4.7024   -0.0000 C   0  0  0  0  0  0  0  0  0  0  0  0
   -3.5686   -4.4945   -0.0000 C   0  0  0  0  0  0  0  0  0  0  0  0
   -2.5981   -3.0000   -0.0000 C   0  0  0  0  0  0  0  0  0  0  0  0
   -4.9535   -5.6160   -0.0000 C   0  0  0  0  0  0  0  0  0  0  0  0
   -1.7321   -3.5000   -0.0000 C   0  0  0  0  0  0  0  0  0  0  0  0
   -4.3657   -6.4250   -0.0000 C   0  0  0  0  0  0  0  0  0  0  0  0
   -0.8660   -3.0000   -0.0000 C   0  0  0  0  0  0  0  0  0  0  0  0
   -4.7725   -7.3385   -0.0000 C   0  0  0  0  0  0  0  0  0  0  0  0
   -3.3712   -6.3205   -0.0000 C   0  0  0  0  0  0  0  0  0  0  0  0
   -0.0000   -3.5000   -0.0000 C   0  0  0  0  0  0  0  0  0  0  0  0
   -0.8660   -2.0000   -0.0000 C   0  0  0  0  0  0  0  0  0  0  0  0
   -4.1847   -8.1476   -0.0000 C   0  0  0  0  0  0  0  0  0  0  0  0
   -2.7834   -7.1295   -0.0000 C   0  0  0  0  0  0  0  0  0  0  0  0
   -0.0000   -4.5000   -0.0000 C   0  0  0  0  0  0  0  0  0  0  0  0
    0.8660   -3.0000   -0.0000 C   0  0  0  0  0  0  0  0  0  0  0  0
   -0.0000   -1.5000   -0.0000 C   0  0  0  0  0  0  0  0  0  0  0  0
   -1.7321   -1.5000   -0.0000 C   0  0  0  0  0  0  0  0  0  0  0  0
   -1.7321   -2.5000   -0.0000 C   0  0  0  0  0  0  0  0  0  0  0  0
   -3.1902   -8.0430   -0.0000 C   0  0  0  0  0  0  0  0  0  0  0  0
    0.8660   -2.0000   -0.0000 C   0  0  0  0  0  0  0  0  0  0  0  0
    0.0000   -0.5000   -0.0000 C   0  0  0  0  0  0  0  0  0  0  0  0
   -1.7321   -0.5000   -0.0000 C   0  0  0  0  0  0  0  0  0  0  0  0
   -2.6024   -8.8520   -0.0000 N   0  0  0  0  0  0  0  0  0  0  0  0
   -0.8660   -0.0000   -0.0000 C   0  0  0  0  0  0  0  0  0  0  0  0
    0.8660   -0.0000   -0.0000 C   0  0  0  0  0  0  0  0  0  0  0  0
   -0.0000    0.5000   -0.0000 C   0  0  0  0  0  0  0  0  0  0  0  0
   -3.0091   -9.7656   -0.0000 C   0  0  0  0  0  0  0  0  0  0  0  0
   -1.6079   -8.7475   -0.0000 C   0  0  0  0  0  0  0  0  0  0  0  0
   -0.8660    1.0000   -0.0000 O   0  0  0  0  0  0  0  0  0  0  0  0
    1.7321   -0.5000   -0.0000 O   0  0  0  0  0  0  0  0  0  0  0  0
    0.0000    1.5000   -0.0000 C   0  0  0  0  0  0  0  0  0  0  0  0
    2.5981   -0.0000   -0.0000 C   0  0  0  0  0  0  0  0  0  0  0  0
    0.8660    1.0000   -0.0000 O   0  0  0  0  0  0  0  0  0  0  0  0
    0.0000    2.5000   -0.0000 C   0  0  0  0  0  0  0  0  0  0  0  0
    3.4641   -0.5000   -0.0000 O   0  0  0  0  0  0  0  0  0  0  0  0
    2.5981    1.0000   -0.0000 C   0  0  0  0  0  0  0  0  0  0  0  0
    0.8660    3.0000   -0.0000 C   0  0  0  0  0  0  0  0  0  0  0  0
   -0.8660    3.0000   -0.0000 C   0  0  0  0  0  0  0  0  0  0  0  0
    3.4641    1.5000   -0.0000 C   0  0  0  0  0  0  0  0  0  0  0  0
    1.7321    1.5000   -0.0000 C   0  0  0  0  0  0  0  0  0  0  0  0
    0.8660    4.0000   -0.0000 N   0  0  0  0  0  0  0  0  0  0  0  0
   -0.8660    4.0000   -0.0000 C   0  0  0  0  0  0  0  0  0  0  0  0
    3.4641    2.5000   -0.0000 N   0  0  0  0  0  0  0  0  0  0  0  0
    1.7321    2.5000   -0.0000 C   0  0  0  0  0  0  0  0  0  0  0  0
    0.0000    4.5000   -0.0000 C   0  0  0  0  0  0  0  0  0  0  0  0
    2.5981    3.0000   -0.0000 C   0  0  0  0  0  0  0  0  0  0  0  0
  1  2  2  0  0  0  0
  2  3  1  0  0  0  0
  2  4  1  0  0  0  0
  3  5  1  0  0  0  0
  4  6  2  0  0  0  0
  4  7  1  0  0  0  0
  5  8  2  0  0  0  0
  7  9  2  0  0  0  0
  8 10  1  0  0  0  0
 11  9  1  1  0  0  0
 10 12  2  0  0  0  0
 10 13  1  0  0  0  0
 11 14  1  0  0  0  0
 11 15  1  0  0  0  0
 12 16  1  0  0  0  0
 13 17  2  0  0  0  0
 14 18  2  0  0  0  0
 14 19  1  0  0  0  0
 15 20  1  0  0  0  0
 15 21  1  0  0  0  0
 15 22  1  1  0  0  0
 16 23  2  0  0  0  0
 19 24  1  0  0  0  0
 20 25  1  0  0  0  0
 21 26  1  0  0  0  0
 23 27  1  0  0  0  0
 25 28  1  0  0  0  0
 25 29  1  0  0  0  0
 25 30  1  6  0  0  0
 27 31  1  0  0  0  0
 27 32  1  0  0  0  0
 28 33  1  1  0  0  0
 29 34  1  0  0  0  0
 33 35  1  0  0  0  0
 34 36  1  0  0  0  0
 35 37  2  0  0  0  0
 35 38  1  0  0  0  0
 36 39  2  0  0  0  0
 36 40  1  0  0  0  0
 38 41  2  0  0  0  0
 38 42  1  0  0  0  0
 40 43  2  0  0  0  0
 40 44  1  0  0  0  0
 41 45  1  0  0  0  0
 42 46  2  0  0  0  0
 43 47  1  0  0  0  0
 44 48  2  0  0  0  0
 45 49  2  0  0  0  0
 47 50  2  0  0  0  0
  5  6  1  0  0  0  0
 17 23  1  0  0  0  0
 20 24  1  1  0  0  0
 26 28  1  0  0  0  0
 46 49  1  0  0  0  0
 48 50  1  0  0  0  0
M  END
>  <S/N>
114

>  <Compound ID>
C_118

>  <PubChem CID>
44437491

>  <Isomeric SMILES>
C[C@@]12CC[C@H]([C@@]([C@H]1CCC(=C)[C@H]2/C=C/C3=C/C(=C\C4=CC=C(C=C4)N(C)C)/OC3=O)(C)COC(=O)C5=CN=CC=C5)OC(=O)C6=CN=CC=C6

>  <IC50 (�M)>
25

>  <pIC50>
4.6

$$$$
C_119
Actelion Java MolfileCreator 1.0

 46 51  0  0  1  0  0  0  0  0999 V2000
   -4.5856   -2.1151   -0.0000 O   0  0  0  0  0  0  0  0  0  0  0  0
   -4.3776   -3.0933   -0.0000 C   0  0  0  0  0  0  0  0  0  0  0  0
   -5.0468   -3.8364   -0.0000 O   0  0  0  0  0  0  0  0  0  0  0  0
   -3.4641   -3.5000   -0.0000 C   0  0  0  0  0  0  0  0  0  0  0  0
   -4.5468   -4.7024   -0.0000 C   0  0  0  0  0  0  0  0  0  0  0  0
   -3.5686   -4.4945   -0.0000 C   0  0  0  0  0  0  0  0  0  0  0  0
   -2.5981   -3.0000   -0.0000 C   0  0  0  0  0  0  0  0  0  0  0  0
   -4.9535   -5.6160   -0.0000 C   0  0  0  0  0  0  0  0  0  0  0  0
   -1.7321   -3.5000   -0.0000 C   0  0  0  0  0  0  0  0  0  0  0  0
   -5.9480   -5.7205   -0.0000 C   0  0  0  0  0  0  0  0  0  0  0  0
   -0.8660   -3.0000   -0.0000 C   0  0  0  0  0  0  0  0  0  0  0  0
   -6.4480   -6.5865   -0.0000 O   0  0  0  0  0  0  0  0  0  0  0  0
   -6.6172   -4.9774   -0.0000 C   0  0  0  0  0  0  0  0  0  0  0  0
   -0.0000   -3.5000   -0.0000 C   0  0  0  0  0  0  0  0  0  0  0  0
   -0.8660   -2.0000   -0.0000 C   0  0  0  0  0  0  0  0  0  0  0  0
   -7.4262   -6.3786   -0.0000 C   0  0  0  0  0  0  0  0  0  0  0  0
   -7.5307   -5.3841   -0.0000 C   0  0  0  0  0  0  0  0  0  0  0  0
   -0.0000   -4.5000   -0.0000 C   0  0  0  0  0  0  0  0  0  0  0  0
    0.8660   -3.0000   -0.0000 C   0  0  0  0  0  0  0  0  0  0  0  0
   -0.0000   -1.5000   -0.0000 C   0  0  0  0  0  0  0  0  0  0  0  0
   -1.7321   -1.5000   -0.0000 C   0  0  0  0  0  0  0  0  0  0  0  0
   -1.7321   -2.5000   -0.0000 C   0  0  0  0  0  0  0  0  0  0  0  0
    0.8660   -2.0000   -0.0000 C   0  0  0  0  0  0  0  0  0  0  0  0
    0.0000   -0.5000   -0.0000 C   0  0  0  0  0  0  0  0  0  0  0  0
   -1.7321   -0.5000   -0.0000 C   0  0  0  0  0  0  0  0  0  0  0  0
   -0.8660   -0.0000   -0.0000 C   0  0  0  0  0  0  0  0  0  0  0  0
    0.8660   -0.0000   -0.0000 C   0  0  0  0  0  0  0  0  0  0  0  0
   -0.0000    0.5000   -0.0000 C   0  0  0  0  0  0  0  0  0  0  0  0
   -0.8660    1.0000   -0.0000 O   0  0  0  0  0  0  0  0  0  0  0  0
    1.7321   -0.5000   -0.0000 O   0  0  0  0  0  0  0  0  0  0  0  0
    0.0000    1.5000   -0.0000 C   0  0  0  0  0  0  0  0  0  0  0  0
    2.5981   -0.0000   -0.0000 C   0  0  0  0  0  0  0  0  0  0  0  0
    0.8660    1.0000   -0.0000 O   0  0  0  0  0  0  0  0  0  0  0  0
    0.0000    2.5000   -0.0000 C   0  0  0  0  0  0  0  0  0  0  0  0
    3.4641   -0.5000   -0.0000 O   0  0  0  0  0  0  0  0  0  0  0  0
    2.5981    1.0000   -0.0000 C   0  0  0  0  0  0  0  0  0  0  0  0
    0.8660    3.0000   -0.0000 C   0  0  0  0  0  0  0  0  0  0  0  0
   -0.8660    3.0000   -0.0000 C   0  0  0  0  0  0  0  0  0  0  0  0
    3.4641    1.5000   -0.0000 C   0  0  0  0  0  0  0  0  0  0  0  0
    1.7321    1.5000   -0.0000 C   0  0  0  0  0  0  0  0  0  0  0  0
    0.8660    4.0000   -0.0000 N   0  0  0  0  0  0  0  0  0  0  0  0
   -0.8660    4.0000   -0.0000 C   0  0  0  0  0  0  0  0  0  0  0  0
    3.4641    2.5000   -0.0000 N   0  0  0  0  0  0  0  0  0  0  0  0
    1.7321    2.5000   -0.0000 C   0  0  0  0  0  0  0  0  0  0  0  0
    0.0000    4.5000   -0.0000 C   0  0  0  0  0  0  0  0  0  0  0  0
    2.5981    3.0000   -0.0000 C   0  0  0  0  0  0  0  0  0  0  0  0
  1  2  2  0  0  0  0
  2  3  1  0  0  0  0
  2  4  1  0  0  0  0
  3  5  1  0  0  0  0
  4  6  2  0  0  0  0
  4  7  1  0  0  0  0
  5  8  2  0  0  0  0
  7  9  2  0  0  0  0
  8 10  1  0  0  0  0
 11  9  1  1  0  0  0
 10 12  1  0  0  0  0
 10 13  2  0  0  0  0
 11 14  1  0  0  0  0
 11 15  1  0  0  0  0
 12 16  1  0  0  0  0
 13 17  1  0  0  0  0
 14 18  2  0  0  0  0
 14 19  1  0  0  0  0
 15 20  1  0  0  0  0
 15 21  1  0  0  0  0
 15 22  1  1  0  0  0
 19 23  1  0  0  0  0
 20 24  1  0  0  0  0
 21 25  1  0  0  0  0
 24 26  1  0  0  0  0
 24 27  1  0  0  0  0
 24 28  1  6  0  0  0
 26 29  1  1  0  0  0
 27 30  1  0  0  0  0
 29 31  1  0  0  0  0
 30 32  1  0  0  0  0
 31 33  2  0  0  0  0
 31 34  1  0  0  0  0
 32 35  2  0  0  0  0
 32 36  1  0  0  0  0
 34 37  2  0  0  0  0
 34 38  1  0  0  0  0
 36 39  2  0  0  0  0
 36 40  1  0  0  0  0
 37 41  1  0  0  0  0
 38 42  2  0  0  0  0
 39 43  1  0  0  0  0
 40 44  2  0  0  0  0
 41 45  2  0  0  0  0
 43 46  2  0  0  0  0
  5  6  1  0  0  0  0
 16 17  2  0  0  0  0
 20 23  1  1  0  0  0
 25 26  1  0  0  0  0
 42 45  1  0  0  0  0
 44 46  1  0  0  0  0
M  END
>  <S/N>
115

>  <Compound ID>
C_119

>  <PubChem CID>
44437492

>  <Isomeric SMILES>
C[C@@]12CC[C@H]([C@@]([C@H]1CCC(=C)[C@H]2/C=C/C3=C/C(=C/C4=CC=CO4)/OC3=O)(C)COC(=O)C5=CN=CC=C5)OC(=O)C6=CN=CC=C6

>  <IC50 (�M)>
36

>  <pIC50>
4.44

$$$$
C_120
Actelion Java MolfileCreator 1.0

 49 54  0  0  1  0  0  0  0  0999 V2000
   -4.5856   -2.1151   -0.0000 O   0  0  0  0  0  0  0  0  0  0  0  0
   -4.3776   -3.0933   -0.0000 C   0  0  0  0  0  0  0  0  0  0  0  0
   -5.0468   -3.8364   -0.0000 O   0  0  0  0  0  0  0  0  0  0  0  0
   -3.4641   -3.5000   -0.0000 C   0  0  0  0  0  0  0  0  0  0  0  0
   -4.5468   -4.7024   -0.0000 C   0  0  0  0  0  0  0  0  0  0  0  0
   -3.5686   -4.4945   -0.0000 C   0  0  0  0  0  0  0  0  0  0  0  0
   -2.5981   -3.0000   -0.0000 C   0  0  0  0  0  0  0  0  0  0  0  0
   -4.9535   -5.6160   -0.0000 C   0  0  0  0  0  0  0  0  0  0  0  0
   -1.7321   -3.5000   -0.0000 C   0  0  0  0  0  0  0  0  0  0  0  0
   -4.3657   -6.4250   -0.0000 C   0  0  0  0  0  0  0  0  0  0  0  0
   -0.8660   -3.0000   -0.0000 C   0  0  0  0  0  0  0  0  0  0  0  0
   -4.7725   -7.3385   -0.0000 C   0  0  0  0  0  0  0  0  0  0  0  0
   -3.3712   -6.3205   -0.0000 C   0  0  0  0  0  0  0  0  0  0  0  0
   -0.0000   -3.5000   -0.0000 C   0  0  0  0  0  0  0  0  0  0  0  0
   -0.8660   -2.0000   -0.0000 C   0  0  0  0  0  0  0  0  0  0  0  0
   -4.1847   -8.1476   -0.0000 C   0  0  0  0  0  0  0  0  0  0  0  0
   -2.7834   -7.1295   -0.0000 C   0  0  0  0  0  0  0  0  0  0  0  0
   -0.0000   -4.5000   -0.0000 C   0  0  0  0  0  0  0  0  0  0  0  0
    0.8660   -3.0000   -0.0000 C   0  0  0  0  0  0  0  0  0  0  0  0
   -0.0000   -1.5000   -0.0000 C   0  0  0  0  0  0  0  0  0  0  0  0
   -1.7321   -1.5000   -0.0000 C   0  0  0  0  0  0  0  0  0  0  0  0
   -1.7321   -2.5000   -0.0000 C   0  0  0  0  0  0  0  0  0  0  0  0
   -3.1902   -8.0430   -0.0000 C   0  0  0  0  0  0  0  0  0  0  0  0
    0.8660   -2.0000   -0.0000 C   0  0  0  0  0  0  0  0  0  0  0  0
    0.0000   -0.5000   -0.0000 C   0  0  0  0  0  0  0  0  0  0  0  0
   -1.7321   -0.5000   -0.0000 C   0  0  0  0  0  0  0  0  0  0  0  0
   -2.6024   -8.8520   -0.0000 O   0  0  0  0  0  0  0  0  0  0  0  0
   -0.8660   -0.0000   -0.0000 C   0  0  0  0  0  0  0  0  0  0  0  0
    0.8660   -0.0000   -0.0000 C   0  0  0  0  0  0  0  0  0  0  0  0
   -0.0000    0.5000   -0.0000 C   0  0  0  0  0  0  0  0  0  0  0  0
   -1.6079   -8.7475   -0.0000 C   0  0  0  0  0  0  0  0  0  0  0  0
   -0.8660    1.0000   -0.0000 O   0  0  0  0  0  0  0  0  0  0  0  0
    1.7321   -0.5000   -0.0000 O   0  0  0  0  0  0  0  0  0  0  0  0
    0.0000    1.5000   -0.0000 C   0  0  0  0  0  0  0  0  0  0  0  0
    2.5981   -0.0000   -0.0000 C   0  0  0  0  0  0  0  0  0  0  0  0
    0.8660    1.0000   -0.0000 O   0  0  0  0  0  0  0  0  0  0  0  0
    0.0000    2.5000   -0.0000 C   0  0  0  0  0  0  0  0  0  0  0  0
    3.4641   -0.5000   -0.0000 O   0  0  0  0  0  0  0  0  0  0  0  0
    2.5981    1.0000   -0.0000 C   0  0  0  0  0  0  0  0  0  0  0  0
    0.8660    3.0000   -0.0000 C   0  0  0  0  0  0  0  0  0  0  0  0
   -0.8660    3.0000   -0.0000 C   0  0  0  0  0  0  0  0  0  0  0  0
    3.4641    1.5000   -0.0000 C   0  0  0  0  0  0  0  0  0  0  0  0
    1.7321    1.5000   -0.0000 C   0  0  0  0  0  0  0  0  0  0  0  0
    0.8660    4.0000   -0.0000 N   0  0  0  0  0  0  0  0  0  0  0  0
   -0.8660    4.0000   -0.0000 C   0  0  0  0  0  0  0  0  0  0  0  0
    3.4641    2.5000   -0.0000 N   0  0  0  0  0  0  0  0  0  0  0  0
    1.7321    2.5000   -0.0000 C   0  0  0  0  0  0  0  0  0  0  0  0
    0.0000    4.5000   -0.0000 C   0  0  0  0  0  0  0  0  0  0  0  0
    2.5981    3.0000   -0.0000 C   0  0  0  0  0  0  0  0  0  0  0  0
  1  2  2  0  0  0  0
  2  3  1  0  0  0  0
  2  4  1  0  0  0  0
  3  5  1  0  0  0  0
  4  6  2  0  0  0  0
  4  7  1  0  0  0  0
  5  8  2  0  0  0  0
  7  9  2  0  0  0  0
  8 10  1  0  0  0  0
 11  9  1  1  0  0  0
 10 12  2  0  0  0  0
 10 13  1  0  0  0  0
 11 14  1  0  0  0  0
 11 15  1  0  0  0  0
 12 16  1  0  0  0  0
 13 17  2  0  0  0  0
 14 18  2  0  0  0  0
 14 19  1  0  0  0  0
 15 20  1  0  0  0  0
 15 21  1  0  0  0  0
 15 22  1  1  0  0  0
 16 23  2  0  0  0  0
 19 24  1  0  0  0  0
 20 25  1  0  0  0  0
 21 26  1  0  0  0  0
 23 27  1  0  0  0  0
 25 28  1  0  0  0  0
 25 29  1  0  0  0  0
 25 30  1  6  0  0  0
 27 31  1  0  0  0  0
 28 32  1  1  0  0  0
 29 33  1  0  0  0  0
 32 34  1  0  0  0  0
 33 35  1  0  0  0  0
 34 36  2  0  0  0  0
 34 37  1  0  0  0  0
 35 38  2  0  0  0  0
 35 39  1  0  0  0  0
 37 40  2  0  0  0  0
 37 41  1  0  0  0  0
 39 42  2  0  0  0  0
 39 43  1  0  0  0  0
 40 44  1  0  0  0  0
 41 45  2  0  0  0  0
 42 46  1  0  0  0  0
 43 47  2  0  0  0  0
 44 48  2  0  0  0  0
 46 49  2  0  0  0  0
  5  6  1  0  0  0  0
 17 23  1  0  0  0  0
 20 24  1  1  0  0  0
 26 28  1  0  0  0  0
 45 48  1  0  0  0  0
 47 49  1  0  0  0  0
M  END
>  <S/N>
116

>  <Compound ID>
C_120

>  <PubChem CID>
44437493

>  <Isomeric SMILES>
C[C@@]12CC[C@H]([C@@]([C@H]1CCC(=C)[C@H]2/C=C/C3=C/C(=C\C4=CC=C(C=C4)OC)/OC3=O)(C)COC(=O)C5=CN=CC=C5)OC(=O)C6=CN=CC=C6

>  <IC50 (�M)>
11

>  <pIC50>
4.96

$$$$
C_122
Actelion Java MolfileCreator 1.0

 33 35  0  0  0  0  0  0  0  0999 V2000
   10.3923    2.5000   -0.0000 O   0  0  0  0  0  0  0  0  0  0  0  0
   10.3923    1.5000   -0.0000 C   0  0  0  0  0  0  0  0  0  0  0  0
    9.5263    1.0000   -0.0000 C   0  0  0  0  0  0  0  0  0  0  0  0
   11.2583    1.0000   -0.0000 C   0  0  0  0  0  0  0  0  0  0  0  0
    8.6603    1.5000   -0.0000 C   0  0  0  0  0  0  0  0  0  0  0  0
    9.5263   -0.0000   -0.0000 C   0  0  0  0  0  0  0  0  0  0  0  0
   11.2583   -0.0000   -0.0000 C   0  0  0  0  0  0  0  0  0  0  0  0
   12.1244    1.5000   -0.0000 C   0  0  0  0  0  0  0  0  0  0  0  0
    8.6603    2.5000   -0.0000 O   0  0  0  0  0  0  0  0  0  0  0  0
    7.7942    1.0000   -0.0000 C   0  0  0  0  0  0  0  0  0  0  0  0
   10.3923   -0.5000   -0.0000 O   0  0  0  0  0  0  0  0  0  0  0  0
    8.6603   -0.5000   -0.0000 C   0  0  0  0  0  0  0  0  0  0  0  0
   12.1244   -0.5000   -0.0000 C   0  0  0  0  0  0  0  0  0  0  0  0
   12.9904    1.0000   -0.0000 C   0  0  0  0  0  0  0  0  0  0  0  0
    7.7942   -0.0000   -0.0000 C   0  0  0  0  0  0  0  0  0  0  0  0
    6.9282    1.5000   -0.0000 C   0  0  0  0  0  0  0  0  0  0  0  0
   12.9904    0.0000   -0.0000 C   0  0  0  0  0  0  0  0  0  0  0  0
   13.8564    1.5000   -0.0000 O   0  0  0  0  0  0  0  0  0  0  0  0
    6.9282   -0.5000   -0.0000 O   0  0  0  0  0  0  0  0  0  0  0  0
    6.0622    1.0000   -0.0000 C   0  0  0  0  0  0  0  0  0  0  0  0
    6.9282   -1.5000   -0.0000 C   0  0  0  0  0  0  0  0  0  0  0  0
    5.1962    1.5000   -0.0000 C   0  0  0  0  0  0  0  0  0  0  0  0
    6.0622   -2.0000   -0.0000 C   0  0  0  0  0  0  0  0  0  0  0  0
    5.1962    2.5000   -0.0000 C   0  0  0  0  0  0  0  0  0  0  0  0
    4.3301    1.0000   -0.0000 C   0  0  0  0  0  0  0  0  0  0  0  0
    6.0622   -3.0000   -0.0000 C   0  0  0  0  0  0  0  0  0  0  0  0
    5.1962   -3.5000   -0.0000 C   0  0  0  0  0  0  0  0  0  0  0  0
    6.9282   -3.5000   -0.0000 C   0  0  0  0  0  0  0  0  0  0  0  0
    5.1962   -4.5000   -0.0000 C   0  0  0  0  0  0  0  0  0  0  0  0
    4.3301   -5.0000   -0.0000 C   0  0  0  0  0  0  0  0  0  0  0  0
    4.3301   -6.0000   -0.0000 C   0  0  0  0  0  0  0  0  0  0  0  0
    5.1962   -6.5000   -0.0000 C   0  0  0  0  0  0  0  0  0  0  0  0
    3.4641   -6.5000   -0.0000 C   0  0  0  0  0  0  0  0  0  0  0  0
  1  2  2  0  0  0  0
  2  3  1  0  0  0  0
  2  4  1  0  0  0  0
  3  5  2  0  0  0  0
  3  6  1  0  0  0  0
  4  7  2  0  0  0  0
  4  8  1  0  0  0  0
  5  9  1  0  0  0  0
  5 10  1  0  0  0  0
  6 11  1  0  0  0  0
  6 12  2  0  0  0  0
  7 13  1  0  0  0  0
  8 14  2  0  0  0  0
 10 15  2  0  0  0  0
 10 16  1  0  0  0  0
 13 17  2  0  0  0  0
 14 18  1  0  0  0  0
 15 19  1  0  0  0  0
 16 20  1  0  0  0  0
 19 21  1  0  0  0  0
 20 22  2  0  0  0  0
 21 23  1  0  0  0  0
 22 24  1  0  0  0  0
 22 25  1  0  0  0  0
 23 26  2  0  0  0  0
 26 27  1  0  0  0  0
 26 28  1  0  0  0  0
 27 29  1  0  0  0  0
 29 30  1  0  0  0  0
 30 31  2  0  0  0  0
 31 32  1  0  0  0  0
 31 33  1  0  0  0  0
  7 11  1  0  0  0  0
 12 15  1  0  0  0  0
 14 17  1  0  0  0  0
M  END
>  <S/N>
117

>  <Compound ID>
C_122

>  <PubChem CID>
51042112

>  <Isomeric SMILES>
CC(=CCC/C(=C/COC1=C(C(=C2C(=C1)OC3=C(C2=O)C=C(C=C3)O)O)CC=C(C)C)/C)C

>  <IC50 (�M)>
28.4

>  <pIC50>
4.55

$$$$
C_123
Actelion Java MolfileCreator 1.0

 25 27  0  0  0  0  0  0  0  0999 V2000
    5.1962    3.7500   -0.0000 O   0  0  0  0  0  0  0  0  0  0  0  0
    5.1962    2.2500   -0.0000 N   0  0  0  0  0  0  0  0  0  0  0  0
    3.8971    1.5000   -0.0000 O   0  0  0  0  0  0  0  0  0  0  0  0
    6.4952    1.5000   -0.0000 C   0  0  0  0  0  0  0  0  0  0  0  0
    6.4952   -0.0000   -0.0000 C   0  0  0  0  0  0  0  0  0  0  0  0
    7.7942    2.2500   -0.0000 C   0  0  0  0  0  0  0  0  0  0  0  0
    7.7942   -0.7500   -0.0000 C   0  0  0  0  0  0  0  0  0  0  0  0
    5.1962   -0.7500   -0.0000 C   0  0  0  0  0  0  0  0  0  0  0  0
    9.0933    1.5000   -0.0000 C   0  0  0  0  0  0  0  0  0  0  0  0
    9.0933    0.0000   -0.0000 C   0  0  0  0  0  0  0  0  0  0  0  0
    3.8971   -0.0000   -0.0000 N   0  0  0  0  0  0  0  0  0  0  0  0
    2.5981   -0.7500   -0.0000 N   0  0  0  0  0  0  0  0  0  0  0  0
    1.2990   -0.0000   -0.0000 C   0  0  0  0  0  0  0  0  0  0  0  0
    1.2990    1.5000   -0.0000 O   0  0  0  0  0  0  0  0  0  0  0  0
    0.0000   -0.7500   -0.0000 C   0  0  0  0  0  0  0  0  0  0  0  0
   -1.2990    0.0000   -0.0000 C   0  0  0  0  0  0  0  0  0  0  0  0
   -0.0000   -2.2500   -0.0000 C   0  0  0  0  0  0  0  0  0  0  0  0
   -1.2990    1.5000   -0.0000 O   0  0  0  0  0  0  0  0  0  0  0  0
   -2.5981   -0.7500   -0.0000 O   0  0  0  0  0  0  0  0  0  0  0  0
   -1.2990   -3.0000   -0.0000 C   0  0  0  0  0  0  0  0  0  0  0  0
   -2.5981   -2.2500   -0.0000 C   0  0  0  0  0  0  0  0  0  0  0  0
   -1.2990   -4.5000   -0.0000 C   0  0  0  0  0  0  0  0  0  0  0  0
   -3.8971   -3.0000   -0.0000 C   0  0  0  0  0  0  0  0  0  0  0  0
   -2.5981   -5.2500   -0.0000 C   0  0  0  0  0  0  0  0  0  0  0  0
   -3.8971   -4.5000   -0.0000 C   0  0  0  0  0  0  0  0  0  0  0  0
  1  2  2  0  0  0  0
  2  3  1  0  0  0  0
  2  4  1  0  0  0  0
  4  5  2  0  0  0  0
  4  6  1  0  0  0  0
  5  7  1  0  0  0  0
  5  8  1  0  0  0  0
  6  9  2  0  0  0  0
  7 10  2  0  0  0  0
  8 11  2  0  0  0  0
 11 12  1  0  0  0  0
 12 13  1  0  0  0  0
 13 14  2  0  0  0  0
 13 15  1  0  0  0  0
 15 16  1  0  0  0  0
 15 17  2  0  0  0  0
 16 18  2  0  0  0  0
 16 19  1  0  0  0  0
 17 20  1  0  0  0  0
 19 21  1  0  0  0  0
 20 22  2  0  0  0  0
 21 23  2  0  0  0  0
 22 24  1  0  0  0  0
 23 25  1  0  0  0  0
  9 10  1  0  0  0  0
 20 21  1  0  0  0  0
 24 25  2  0  0  0  0
M  CHG  2   2   1   3  -1
M  END
>  <S/N>
118

>  <Compound ID>
C_123

>  <PubChem CID>
53375223

>  <Isomeric SMILES>
C1=CC=C2C(=C1)C=C(C(=O)O2)C(=O)N/N=C/C3=CC=CC=C3[N+](=O)[O-]

>  <IC50 (�M)>
1.1

>  <pIC50>
5.96

$$$$
C_124
Actelion Java MolfileCreator 1.0

 19 18  0  0  1  0  0  0  0  0999 V2000
    7.2908   -0.5000   -0.0000 Cl  0  0  0  0  0  0  0  0  0  0  0  0
    5.1962   -0.5000   -0.0000 S   0  0  0  0  0  0  0  0  0  0  0  0
    4.2974   -0.9384   -0.0000 C   0  0  0  0  0  0  0  0  0  0  0  0
    5.8908   -1.2193   -0.0000 C   0  0  0  0  0  0  0  0  0  0  0  0
    5.3698    0.4848   -0.0000 C   0  0  0  0  0  0  0  0  0  0  0  0
    4.4365   -1.9286   -0.0000 C   0  0  0  0  0  0  0  0  0  0  0  0
    3.4144   -0.4689   -0.0000 C   0  0  0  0  0  0  0  0  0  0  0  0
    5.4213   -2.1023   -0.0000 C   0  0  0  0  0  0  0  0  0  0  0  0
    4.6038    1.1276   -0.0000 C   0  0  0  0  0  0  0  0  0  0  0  0
    3.7172   -2.6233   -0.0000 O   0  0  0  0  0  0  0  0  0  0  0  0
    2.5664   -0.9988   -0.0000 O   0  0  0  0  0  0  0  0  0  0  0  0
    5.8597   -3.0011   -0.0000 O   0  0  0  0  0  0  0  0  0  0  0  0
    3.6641    0.7856   -0.0000 O   0  0  0  0  0  0  0  0  0  0  0  0
    4.7774    2.1124   -0.0000 C   0  0  0  0  0  0  0  0  0  0  0  0
    4.0114    2.7552   -0.0000 O   0  0  0  0  0  0  0  0  0  0  0  0
    5.7171    2.4544   -0.0000 C   0  0  0  0  0  0  0  0  0  0  0  0
    4.1850    3.7400   -0.0000 C   0  0  0  0  0  0  0  0  0  0  0  0
    5.8907    3.4392   -0.0000 O   0  0  0  0  0  0  0  0  0  0  0  0
    3.4190    4.3828   -0.0000 C   0  0  0  0  0  0  0  0  0  0  0  0
  2  3  1  0  0  0  0
  2  4  1  0  0  0  0
  2  5  1  0  0  0  0
  3  6  1  0  0  0  0
  3  7  1  1  0  0  0
  4  8  1  0  0  0  0
  5  9  1  0  0  0  0
  6 10  1  6  0  0  0
  7 11  1  0  0  0  0
  8 12  1  1  0  0  0
  9 13  1  1  0  0  0
  9 14  1  0  0  0  0
 14 15  1  1  0  0  0
 14 16  1  0  0  0  0
 15 17  1  0  0  0  0
 16 18  1  0  0  0  0
 17 19  1  0  0  0  0
  6  8  1  0  0  0  0
M  CHG  2   1  -1   2   1
M  END
>  <S/N>
119

>  <Compound ID>
C_124

>  <PubChem CID>
54580834

>  <Isomeric SMILES>
CCO[C@@H](CO)[C@@H](C[S+]1C[C@H]([C@@H]([C@H]1CO)O)O)O.[Cl-]

>  <IC50 (�M)>
0.96

>  <pIC50>
6.02

$$$$
C_125
Actelion Java MolfileCreator 1.0

 42 48  0  0  1  0  0  0  0  0999 V2000
    1.0385   -2.3202   -0.0000 O   0  0  0  0  0  0  0  0  0  0  0  0
    1.1430   -1.3256   -0.0000 C   0  0  0  0  0  0  0  0  0  0  0  0
    0.3340   -0.7379   -0.0000 C   0  0  0  0  0  0  0  0  0  0  0  0
    2.0566   -0.9189   -0.0000 C   0  0  0  0  0  0  0  0  0  0  0  0
    0.4385    0.2567   -0.0000 C   0  0  0  0  0  0  0  0  0  0  0  0
    2.1611    0.0756   -0.0000 C   0  0  0  0  0  0  0  0  0  0  0  0
    1.3521    0.6634   -0.0000 C   0  0  0  0  0  0  0  0  0  0  0  0
   -0.3705    0.8444   -0.0000 C   0  0  0  0  0  0  0  0  0  0  0  0
    1.4566    1.6579   -0.0000 C   0  0  0  0  0  0  0  0  0  0  0  0
    2.2656    1.0701   -0.0000 C   0  0  0  0  0  0  0  0  0  0  0  0
   -0.2660    1.8390   -0.0000 C   0  0  0  0  0  0  0  0  0  0  0  0
    0.6476    2.2457   -0.0000 C   0  0  0  0  0  0  0  0  0  0  0  0
    2.3701    2.0647   -0.0000 C   0  0  0  0  0  0  0  0  0  0  0  0
    0.7521    3.2402   -0.0000 C   0  0  0  0  0  0  0  0  0  0  0  0
    2.4747    3.0592   -0.0000 C   0  0  0  0  0  0  0  0  0  0  0  0
    1.6657    3.6470   -0.0000 C   0  0  0  0  0  0  0  0  0  0  0  0
    0.0830    3.9834   -0.0000 C   0  0  0  0  0  0  0  0  0  0  0  0
    1.5611    4.6415   -0.0000 C   0  0  0  0  0  0  0  0  0  0  0  0
    2.5317    4.1470   -0.0000 C   0  0  0  0  0  0  0  0  0  0  0  0
    0.5830    4.8494   -0.0000 C   0  0  0  0  0  0  0  0  0  0  0  0
    2.3043    5.3106   -0.0000 O   0  0  0  0  0  0  0  0  0  0  0  0
    5.4063    5.9671   -0.0000 O   0  0  0  0  0  0  0  0  0  0  0  0
    5.3018    4.9726   -0.0000 C   0  0  0  0  0  0  0  0  0  0  0  0
    6.1108    4.3848   -0.0000 C   0  0  0  0  0  0  0  0  0  0  0  0
    4.3883    4.5659   -0.0000 C   0  0  0  0  0  0  0  0  0  0  0  0
    6.0063    3.3903   -0.0000 C   0  0  0  0  0  0  0  0  0  0  0  0
    4.2837    3.5714   -0.0000 C   0  0  0  0  0  0  0  0  0  0  0  0
    5.0927    2.9836   -0.0000 C   0  0  0  0  0  0  0  0  0  0  0  0
    6.8153    2.8025   -0.0000 C   0  0  0  0  0  0  0  0  0  0  0  0
    4.9882    1.9890   -0.0000 C   0  0  0  0  0  0  0  0  0  0  0  0
    4.1792    2.5768   -0.0000 C   0  0  0  0  0  0  0  0  0  0  0  0
    6.7108    1.8080   -0.0000 C   0  0  0  0  0  0  0  0  0  0  0  0
    5.7972    1.4013   -0.0000 C   0  0  0  0  0  0  0  0  0  0  0  0
    4.0747    1.5823   -0.0000 C   0  0  0  0  0  0  0  0  0  0  0  0
    5.6927    0.4067   -0.0000 C   0  0  0  0  0  0  0  0  0  0  0  0
    3.9701    0.5878   -0.0000 C   0  0  0  0  0  0  0  0  0  0  0  0
    4.7792    0.0000   -0.0000 C   0  0  0  0  0  0  0  0  0  0  0  0
    6.3618   -0.3364   -0.0000 C   0  0  0  0  0  0  0  0  0  0  0  0
    4.8837   -0.9945   -0.0000 C   0  0  0  0  0  0  0  0  0  0  0  0
    3.9131   -0.5000   -0.0000 C   0  0  0  0  0  0  0  0  0  0  0  0
    5.8618   -1.2024   -0.0000 C   0  0  0  0  0  0  0  0  0  0  0  0
    4.1405   -1.6637   -0.0000 O   0  0  0  0  0  0  0  0  0  0  0  0
  1  2  2  0  0  0  0
  2  3  1  0  0  0  0
  2  4  1  0  0  0  0
  3  5  1  0  0  0  0
  4  6  1  0  0  0  0
  5  7  1  0  0  0  0
  5  8  1  0  0  0  0
  7  9  1  0  0  0  0
  7 10  1  6  0  0  0
  8 11  1  0  0  0  0
  9 12  1  0  0  0  0
  9 13  1  6  0  0  0
 12 14  1  0  0  0  0
 13 15  1  0  0  0  0
 14 16  1  0  0  0  0
 14 17  1  6  0  0  0
 16 18  1  0  0  0  0
 16 19  1  6  0  0  0
 17 20  1  0  0  0  0
 18 21  1  6  0  0  0
 22 23  2  0  0  0  0
 23 24  1  0  0  0  0
 23 25  1  0  0  0  0
 26 24  1  6  0  0  0
 25 27  1  0  0  0  0
 26 28  1  0  0  0  0
 26 29  1  0  0  0  0
 28 30  1  0  0  0  0
 28 31  1  6  0  0  0
 29 32  1  0  0  0  0
 30 33  1  0  0  0  0
 30 34  1  6  0  0  0
 33 35  1  0  0  0  0
 34 36  1  0  0  0  0
 35 37  1  0  0  0  0
 35 38  1  6  0  0  0
 37 39  1  0  0  0  0
 37 40  1  6  0  0  0
 38 41  1  0  0  0  0
 39 42  1  6  0  0  0
  6  7  1  0  0  0  0
 12 11  1  1  0  0  0
 15 16  1  0  0  0  0
 18 20  1  0  0  0  0
 27 28  1  0  0  0  0
 33 32  1  1  0  0  0
 36 37  1  0  0  0  0
 39 41  1  0  0  0  0
M  END
>  <S/N>
120

>  <Compound ID>
C_125

>  <PubChem CID>
54584900

>  <Isomeric SMILES>
C[C@]12CCC(=O)C[C@@H]1CC[C@@H]3[C@@H]2CC[C@]4([C@H]3CC[C@@H]4O)C.C[C@]12CC[C@H]3[C@H]([C@@H]1CC[C@@H]2O)CCC4[C@@]3(CCC(=O)C4)C

>  <IC50 (�M)>
100

>  <pIC50>
4

$$$$
C_126
Actelion Java MolfileCreator 1.0

 30 29  0  0  1  0  0  0  0  0999 V2000
   26.4818   -0.0000   -0.0000 Cl  0  0  0  0  0  0  0  0  0  0  0  0
   22.0836   -0.0000   -0.0000 S   0  0  0  0  0  0  0  0  0  0  0  0
   21.0417   -1.0790   -0.0000 C   0  0  0  0  0  0  0  0  0  0  0  0
   23.4318   -0.6576   -0.0000 C   0  0  0  0  0  0  0  0  0  0  0  0
   21.8232    1.4772   -0.0000 C   0  0  0  0  0  0  0  0  0  0  0  0
   21.7459   -2.4034   -0.0000 C   0  0  0  0  0  0  0  0  0  0  0  0
   19.5563   -0.8703   -0.0000 C   0  0  0  0  0  0  0  0  0  0  0  0
   23.2231   -2.1430   -0.0000 C   0  0  0  0  0  0  0  0  0  0  0  0
   22.9722    2.4414   -0.0000 C   0  0  0  0  0  0  0  0  0  0  0  0
   21.0883   -3.7516   -0.0000 O   0  0  0  0  0  0  0  0  0  0  0  0
   18.6328   -2.0523   -0.0000 O   0  0  0  0  0  0  0  0  0  0  0  0
   24.3021   -3.1849   -0.0000 O   0  0  0  0  0  0  0  0  0  0  0  0
   24.3818    1.9284   -0.0000 O   0  0  0  0  0  0  0  0  0  0  0  0
   22.7118    3.9186   -0.0000 C   0  0  0  0  0  0  0  0  0  0  0  0
   23.8608    4.8828   -0.0000 O   0  0  0  0  0  0  0  0  0  0  0  0
   21.3022    4.4316   -0.0000 C   0  0  0  0  0  0  0  0  0  0  0  0
   23.6004    6.3600   -0.0000 C   0  0  0  0  0  0  0  0  0  0  0  0
   20.1532    3.4675   -0.0000 O   0  0  0  0  0  0  0  0  0  0  0  0
   24.7494    7.3242   -0.0000 C   0  0  0  0  0  0  0  0  0  0  0  0
   24.4890    8.8014   -0.0000 C   0  0  0  0  0  0  0  0  0  0  0  0
   25.6380    9.7656   -0.0000 C   0  0  0  0  0  0  0  0  0  0  0  0
   25.3776   11.2428   -0.0000 C   0  0  0  0  0  0  0  0  0  0  0  0
   26.5266   12.2070   -0.0000 C   0  0  0  0  0  0  0  0  0  0  0  0
   26.2661   13.6842   -0.0000 C   0  0  0  0  0  0  0  0  0  0  0  0
   27.4152   14.6484   -0.0000 C   0  0  0  0  0  0  0  0  0  0  0  0
   27.1547   16.1256   -0.0000 C   0  0  0  0  0  0  0  0  0  0  0  0
   28.3038   17.0898   -0.0000 C   0  0  0  0  0  0  0  0  0  0  0  0
   28.0433   18.5670   -0.0000 C   0  0  0  0  0  0  0  0  0  0  0  0
   29.1924   19.5311   -0.0000 C   0  0  0  0  0  0  0  0  0  0  0  0
   28.9319   21.0084   -0.0000 C   0  0  0  0  0  0  0  0  0  0  0  0
  2  3  1  0  0  0  0
  2  4  1  0  0  0  0
  2  5  1  0  0  0  0
  3  6  1  0  0  0  0
  3  7  1  1  0  0  0
  4  8  1  0  0  0  0
  5  9  1  0  0  0  0
  6 10  1  6  0  0  0
  7 11  1  0  0  0  0
  8 12  1  1  0  0  0
  9 13  1  6  0  0  0
  9 14  1  0  0  0  0
 14 15  1  6  0  0  0
 14 16  1  0  0  0  0
 15 17  1  0  0  0  0
 16 18  1  0  0  0  0
 17 19  1  0  0  0  0
 19 20  1  0  0  0  0
 20 21  1  0  0  0  0
 21 22  1  0  0  0  0
 22 23  1  0  0  0  0
 23 24  1  0  0  0  0
 24 25  1  0  0  0  0
 25 26  1  0  0  0  0
 26 27  1  0  0  0  0
 27 28  1  0  0  0  0
 28 29  1  0  0  0  0
 29 30  1  0  0  0  0
  6  8  1  0  0  0  0
M  CHG  2   1  -1   2   1
M  END
>  <S/N>
121

>  <Compound ID>
C_126

>  <PubChem CID>
54586701

>  <Isomeric SMILES>
CCCCCCCCCCCCCO[C@@H](CO)[C@@H](C[S+]1C[C@H]([C@@H]([C@H]1CO)O)O)O.[Cl-]

>  <IC50 (�M)>
1.1

>  <pIC50>
5.96

$$$$
C_127
Actelion Java MolfileCreator 1.0

 18 17  0  0  1  0  0  0  0  0999 V2000
    7.2622   -0.0000   -0.0000 Cl  0  0  0  0  0  0  0  0  0  0  0  0
    4.3301   -0.0000   -0.0000 S   0  0  0  0  0  0  0  0  0  0  0  0
    3.6355   -0.7193   -0.0000 C   0  0  0  0  0  0  0  0  0  0  0  0
    5.2289   -0.4384   -0.0000 C   0  0  0  0  0  0  0  0  0  0  0  0
    4.1565    0.9848   -0.0000 C   0  0  0  0  0  0  0  0  0  0  0  0
    4.1049   -1.6023   -0.0000 C   0  0  0  0  0  0  0  0  0  0  0  0
    2.6452   -0.5802   -0.0000 C   0  0  0  0  0  0  0  0  0  0  0  0
    5.0897   -1.4286   -0.0000 C   0  0  0  0  0  0  0  0  0  0  0  0
    4.9225    1.6276   -0.0000 C   0  0  0  0  0  0  0  0  0  0  0  0
    3.6666   -2.5011   -0.0000 O   0  0  0  0  0  0  0  0  0  0  0  0
    2.0295   -1.3682   -0.0000 O   0  0  0  0  0  0  0  0  0  0  0  0
    5.8091   -2.1233   -0.0000 O   0  0  0  0  0  0  0  0  0  0  0  0
    5.8622    1.2856   -0.0000 O   0  0  0  0  0  0  0  0  0  0  0  0
    4.7489    2.6124   -0.0000 C   0  0  0  0  0  0  0  0  0  0  0  0
    3.8092    2.9544   -0.0000 O   0  0  0  0  0  0  0  0  0  0  0  0
    5.5149    3.2552   -0.0000 C   0  0  0  0  0  0  0  0  0  0  0  0
    3.0431    2.3116   -0.0000 C   0  0  0  0  0  0  0  0  0  0  0  0
    5.3413    4.2400   -0.0000 O   0  0  0  0  0  0  0  0  0  0  0  0
  2  3  1  0  0  0  0
  2  4  1  0  0  0  0
  2  5  1  0  0  0  0
  3  6  1  0  0  0  0
  3  7  1  1  0  0  0
  4  8  1  0  0  0  0
  5  9  1  0  0  0  0
  6 10  1  6  0  0  0
  7 11  1  0  0  0  0
  8 12  1  1  0  0  0
  9 13  1  6  0  0  0
  9 14  1  0  0  0  0
 14 15  1  1  0  0  0
 14 16  1  0  0  0  0
 15 17  1  0  0  0  0
 16 18  1  0  0  0  0
  6  8  1  0  0  0  0
M  CHG  2   1  -1   2   1
M  END
>  <S/N>
122

>  <Compound ID>
C_127

>  <PubChem CID>
54587740

>  <Isomeric SMILES>
CO[C@@H](CO)[C@@H](C[S+]1C[C@H]([C@@H]([C@H]1CO)O)O)O.[Cl-]

>  <IC50 (�M)>
2

>  <pIC50>
5.7

$$$$
C_128
Actelion Java MolfileCreator 1.0

 17 19  0  0  0  0  0  0  0  0999 V2000
    2.5981    3.7500   -0.0000 O   0  0  0  0  0  0  0  0  0  0  0  0
    2.5981    2.2500   -0.0000 C   0  0  0  0  0  0  0  0  0  0  0  0
    1.2990    1.5000   -0.0000 C   0  0  0  0  0  0  0  0  0  0  0  0
    3.8971    1.5000   -0.0000 C   0  0  0  0  0  0  0  0  0  0  0  0
    1.2990   -0.0000   -0.0000 C   0  0  0  0  0  0  0  0  0  0  0  0
    3.8971   -0.0000   -0.0000 C   0  0  0  0  0  0  0  0  0  0  0  0
    0.0000   -0.7500   -0.0000 C   0  0  0  0  0  0  0  0  0  0  0  0
    2.5981   -0.7500   -0.0000 C   0  0  0  0  0  0  0  0  0  0  0  0
   -1.3703   -0.1399   -0.0000 N   0  0  0  0  0  0  0  0  0  0  0  0
   -0.1568   -2.2418   -0.0000 N   0  0  0  0  0  0  0  0  0  0  0  0
   -2.3740   -1.2546   -0.0000 C   0  0  0  0  0  0  0  0  0  0  0  0
   -1.6240   -2.5537   -0.0000 C   0  0  0  0  0  0  0  0  0  0  0  0
   -3.8740   -1.2546   -0.0000 C   0  0  0  0  0  0  0  0  0  0  0  0
   -2.3740   -3.8527   -0.0000 C   0  0  0  0  0  0  0  0  0  0  0  0
   -4.6240   -2.5537   -0.0000 C   0  0  0  0  0  0  0  0  0  0  0  0
   -4.6240    0.0444   -0.0000 C   0  0  0  0  0  0  0  0  0  0  0  0
   -3.8740   -3.8527   -0.0000 C   0  0  0  0  0  0  0  0  0  0  0  0
  1  2  1  0  0  0  0
  2  3  2  0  0  0  0
  2  4  1  0  0  0  0
  3  5  1  0  0  0  0
  4  6  2  0  0  0  0
  5  7  1  0  0  0  0
  5  8  2  0  0  0  0
  7  9  2  0  0  0  0
  7 10  1  0  0  0  0
  9 11  1  0  0  0  0
 10 12  1  0  0  0  0
 11 13  2  0  0  0  0
 12 14  2  0  0  0  0
 13 15  1  0  0  0  0
 13 16  1  0  0  0  0
 14 17  1  0  0  0  0
  6  8  1  0  0  0  0
 11 12  1  0  0  0  0
 15 17  2  0  0  0  0
M  END
>  <S/N>
123

>  <Compound ID>
C_128

>  <PubChem CID>
54941384

>  <Isomeric SMILES>
CC1=C2C(=CC=C1)NC(=N2)C3=CC(=CC=C3)O

>  <IC50 (�M)>
5.3

>  <pIC50>
5.28

$$$$
C_129
Actelion Java MolfileCreator 1.0

 17 19  0  0  0  0  0  0  0  0999 V2000
    0.0000    2.2500   -0.0000 F   0  0  0  0  0  0  0  0  0  0  0  0
    1.2990    1.5000   -0.0000 C   0  0  0  0  0  0  0  0  0  0  0  0
    1.2990   -0.0000   -0.0000 C   0  0  0  0  0  0  0  0  0  0  0  0
    2.5981    2.2500   -0.0000 C   0  0  0  0  0  0  0  0  0  0  0  0
    0.0000   -0.7500   -0.0000 C   0  0  0  0  0  0  0  0  0  0  0  0
    2.5981   -0.7500   -0.0000 C   0  0  0  0  0  0  0  0  0  0  0  0
    3.8971    1.5000   -0.0000 C   0  0  0  0  0  0  0  0  0  0  0  0
   -1.3703   -0.1399   -0.0000 N   0  0  0  0  0  0  0  0  0  0  0  0
   -0.1568   -2.2418   -0.0000 N   0  0  0  0  0  0  0  0  0  0  0  0
    3.8971   -0.0000   -0.0000 C   0  0  0  0  0  0  0  0  0  0  0  0
   -2.3740   -1.2546   -0.0000 C   0  0  0  0  0  0  0  0  0  0  0  0
   -1.6240   -2.5537   -0.0000 C   0  0  0  0  0  0  0  0  0  0  0  0
   -3.8740   -1.2546   -0.0000 C   0  0  0  0  0  0  0  0  0  0  0  0
   -2.3740   -3.8527   -0.0000 C   0  0  0  0  0  0  0  0  0  0  0  0
   -4.6240   -2.5537   -0.0000 C   0  0  0  0  0  0  0  0  0  0  0  0
   -4.6240    0.0444   -0.0000 C   0  0  0  0  0  0  0  0  0  0  0  0
   -3.8740   -3.8527   -0.0000 C   0  0  0  0  0  0  0  0  0  0  0  0
  1  2  1  0  0  0  0
  2  3  2  0  0  0  0
  2  4  1  0  0  0  0
  3  5  1  0  0  0  0
  3  6  1  0  0  0  0
  4  7  2  0  0  0  0
  5  8  2  0  0  0  0
  5  9  1  0  0  0  0
  6 10  2  0  0  0  0
  8 11  1  0  0  0  0
  9 12  1  0  0  0  0
 11 13  2  0  0  0  0
 12 14  2  0  0  0  0
 13 15  1  0  0  0  0
 13 16  1  0  0  0  0
 14 17  1  0  0  0  0
  7 10  1  0  0  0  0
 11 12  1  0  0  0  0
 15 17  2  0  0  0  0
M  END
>  <S/N>
124

>  <Compound ID>
C_129

>  <PubChem CID>
59018257

>  <Isomeric SMILES>
CC1=C2C(=CC=C1)NC(=N2)C3=CC=CC=C3F

>  <IC50 (�M)>
5.3

>  <pIC50>
5.28

$$$$
C_130
Actelion Java MolfileCreator 1.0

 17 19  0  0  0  0  0  0  0  0999 V2000
    5.1962    2.2500   -0.0000 Cl  0  0  0  0  0  0  0  0  0  0  0  0
    3.8971    1.5000   -0.0000 C   0  0  0  0  0  0  0  0  0  0  0  0
    2.5981    2.2500   -0.0000 C   0  0  0  0  0  0  0  0  0  0  0  0
    3.8971   -0.0000   -0.0000 C   0  0  0  0  0  0  0  0  0  0  0  0
    1.2990    1.5000   -0.0000 C   0  0  0  0  0  0  0  0  0  0  0  0
    2.5981   -0.7500   -0.0000 C   0  0  0  0  0  0  0  0  0  0  0  0
    1.2990   -0.0000   -0.0000 C   0  0  0  0  0  0  0  0  0  0  0  0
    0.0000   -0.7500   -0.0000 C   0  0  0  0  0  0  0  0  0  0  0  0
   -1.3703   -0.1399   -0.0000 N   0  0  0  0  0  0  0  0  0  0  0  0
   -0.1568   -2.2418   -0.0000 N   0  0  0  0  0  0  0  0  0  0  0  0
   -2.3740   -1.2546   -0.0000 C   0  0  0  0  0  0  0  0  0  0  0  0
   -1.6240   -2.5537   -0.0000 C   0  0  0  0  0  0  0  0  0  0  0  0
   -3.8740   -1.2546   -0.0000 C   0  0  0  0  0  0  0  0  0  0  0  0
   -2.3740   -3.8527   -0.0000 C   0  0  0  0  0  0  0  0  0  0  0  0
   -4.6240   -2.5537   -0.0000 C   0  0  0  0  0  0  0  0  0  0  0  0
   -4.6240    0.0444   -0.0000 C   0  0  0  0  0  0  0  0  0  0  0  0
   -3.8740   -3.8527   -0.0000 C   0  0  0  0  0  0  0  0  0  0  0  0
  1  2  1  0  0  0  0
  2  3  2  0  0  0  0
  2  4  1  0  0  0  0
  3  5  1  0  0  0  0
  4  6  2  0  0  0  0
  5  7  2  0  0  0  0
  7  8  1  0  0  0  0
  8  9  2  0  0  0  0
  8 10  1  0  0  0  0
  9 11  1  0  0  0  0
 10 12  1  0  0  0  0
 11 13  2  0  0  0  0
 12 14  2  0  0  0  0
 13 15  1  0  0  0  0
 13 16  1  0  0  0  0
 14 17  1  0  0  0  0
  6  7  1  0  0  0  0
 11 12  1  0  0  0  0
 15 17  2  0  0  0  0
M  END
>  <S/N>
125

>  <Compound ID>
C_130

>  <PubChem CID>
59018388

>  <Isomeric SMILES>
CC1=C2C(=CC=C1)NC(=N2)C3=CC=C(C=C3)Cl

>  <IC50 (�M)>
5.3

>  <pIC50>
5.28

$$$$
C_131
Actelion Java MolfileCreator 1.0

 27 27  0  0  1  0  0  0  0  0999 V2000
   10.9362   -0.7500   -0.0000 Cl  0  0  0  0  0  0  0  0  0  0  0  0
    7.7942   -0.7500   -0.0000 S   0  0  0  0  0  0  0  0  0  0  0  0
    6.4460   -1.4076   -0.0000 C   0  0  0  0  0  0  0  0  0  0  0  0
    8.8362   -1.8290   -0.0000 C   0  0  0  0  0  0  0  0  0  0  0  0
    8.0547    0.7272   -0.0000 C   0  0  0  0  0  0  0  0  0  0  0  0
    6.6548   -2.8930   -0.0000 C   0  0  0  0  0  0  0  0  0  0  0  0
    5.1216   -0.7033   -0.0000 C   0  0  0  0  0  0  0  0  0  0  0  0
    8.1320   -3.1534   -0.0000 C   0  0  0  0  0  0  0  0  0  0  0  0
    6.9056    1.6914   -0.0000 C   0  0  0  0  0  0  0  0  0  0  0  0
    5.5758   -3.9349   -0.0000 O   0  0  0  0  0  0  0  0  0  0  0  0
    3.8495   -1.4982   -0.0000 O   0  0  0  0  0  0  0  0  0  0  0  0
    8.7896   -4.5016   -0.0000 O   0  0  0  0  0  0  0  0  0  0  0  0
    5.4961    1.1784   -0.0000 O   0  0  0  0  0  0  0  0  0  0  0  0
    7.1661    3.1686   -0.0000 C   0  0  0  0  0  0  0  0  0  0  0  0
    6.0170    4.1328   -0.0000 O   0  0  0  0  0  0  0  0  0  0  0  0
    8.5756    3.6816   -0.0000 C   0  0  0  0  0  0  0  0  0  0  0  0
    6.2775    5.6100   -0.0000 C   0  0  0  0  0  0  0  0  0  0  0  0
    8.8361    5.1588   -0.0000 O   0  0  0  0  0  0  0  0  0  0  0  0
    5.1284    6.5742   -0.0000 C   0  0  0  0  0  0  0  0  0  0  0  0
    5.3889    8.0514   -0.0000 C   0  0  0  0  0  0  0  0  0  0  0  0
    3.7189    6.0611   -0.0000 C   0  0  0  0  0  0  0  0  0  0  0  0
    6.7985    8.5644   -0.0000 N   0  0  0  0  0  0  0  0  0  0  0  0
    4.2399    9.0156   -0.0000 C   0  0  0  0  0  0  0  0  0  0  0  0
    2.5698    7.0253   -0.0000 C   0  0  0  0  0  0  0  0  0  0  0  0
    7.9475    7.6002   -0.0000 O   0  0  0  0  0  0  0  0  0  0  0  0
    7.0589   10.0416   -0.0000 O   0  0  0  0  0  0  0  0  0  0  0  0
    2.8303    8.5025   -0.0000 C   0  0  0  0  0  0  0  0  0  0  0  0
  2  3  1  0  0  0  0
  2  4  1  0  0  0  0
  2  5  1  0  0  0  0
  3  6  1  0  0  0  0
  3  7  1  1  0  0  0
  4  8  1  0  0  0  0
  5  9  1  0  0  0  0
  6 10  1  6  0  0  0
  7 11  1  0  0  0  0
  8 12  1  1  0  0  0
  9 13  1  1  0  0  0
  9 14  1  0  0  0  0
 14 15  1  1  0  0  0
 14 16  1  0  0  0  0
 15 17  1  0  0  0  0
 16 18  1  0  0  0  0
 17 19  1  0  0  0  0
 19 20  2  0  0  0  0
 19 21  1  0  0  0  0
 20 22  1  0  0  0  0
 20 23  1  0  0  0  0
 21 24  2  0  0  0  0
 22 25  2  0  0  0  0
 22 26  1  0  0  0  0
 23 27  2  0  0  0  0
  6  8  1  0  0  0  0
 24 27  1  0  0  0  0
M  CHG  4   1  -1   2   1  22   1  26  -1
M  END
>  <S/N>
126

>  <Compound ID>
C_131

>  <PubChem CID>
60201905

>  <Isomeric SMILES>
C1[C@H]([C@@H]([C@H]([S+]1C[C@H]([C@H](CO)OCC2=CC=CC=C2[N+](=O)[O-])O)CO)O)O.[Cl-]

>  <IC50 (�M)>
0.15

>  <pIC50>
6.82

$$$$
C_132
Actelion Java MolfileCreator 1.0

 15 17  0  0  0  0  0  0  0  0999 V2000
    1.4558    1.4918   -0.0000 S   0  0  0  0  0  0  0  0  0  0  0  0
    1.2990   -0.0000   -0.0000 C   0  0  0  0  0  0  0  0  0  0  0  0
    2.9231    1.8037   -0.0000 C   0  0  0  0  0  0  0  0  0  0  0  0
    0.0000   -0.7500   -0.0000 C   0  0  0  0  0  0  0  0  0  0  0  0
    2.6694   -0.6101   -0.0000 C   0  0  0  0  0  0  0  0  0  0  0  0
    3.6731    0.5046   -0.0000 C   0  0  0  0  0  0  0  0  0  0  0  0
   -1.3703   -0.1399   -0.0000 N   0  0  0  0  0  0  0  0  0  0  0  0
   -0.1568   -2.2418   -0.0000 N   0  0  0  0  0  0  0  0  0  0  0  0
   -2.3740   -1.2546   -0.0000 C   0  0  0  0  0  0  0  0  0  0  0  0
   -1.6240   -2.5537   -0.0000 C   0  0  0  0  0  0  0  0  0  0  0  0
   -3.8740   -1.2546   -0.0000 C   0  0  0  0  0  0  0  0  0  0  0  0
   -2.3740   -3.8527   -0.0000 C   0  0  0  0  0  0  0  0  0  0  0  0
   -4.6240   -2.5537   -0.0000 C   0  0  0  0  0  0  0  0  0  0  0  0
   -4.6240    0.0444   -0.0000 C   0  0  0  0  0  0  0  0  0  0  0  0
   -3.8740   -3.8527   -0.0000 C   0  0  0  0  0  0  0  0  0  0  0  0
  1  2  1  0  0  0  0
  1  3  1  0  0  0  0
  2  4  1  0  0  0  0
  2  5  2  0  0  0  0
  3  6  2  0  0  0  0
  4  7  2  0  0  0  0
  4  8  1  0  0  0  0
  7  9  1  0  0  0  0
  8 10  1  0  0  0  0
  9 11  1  0  0  0  0
 10 12  1  0  0  0  0
 11 13  2  0  0  0  0
 11 14  1  0  0  0  0
 12 15  2  0  0  0  0
  5  6  1  0  0  0  0
  9 10  2  0  0  0  0
 13 15  1  0  0  0  0
M  END
>  <S/N>
127

>  <Compound ID>
C_132

>  <PubChem CID>
60646299

>  <Isomeric SMILES>
CC1=C2C(=CC=C1)NC(=N2)C3=CC=CS3

>  <IC50 (�M)>
5.3

>  <pIC50>
5.28

$$$$
C_133
Actelion Java MolfileCreator 1.0

 17 19  0  0  0  0  0  0  0  0999 V2000
    2.5981    3.7500   -0.0000 Cl  0  0  0  0  0  0  0  0  0  0  0  0
    2.5981    2.2500   -0.0000 C   0  0  0  0  0  0  0  0  0  0  0  0
    1.2990    1.5000   -0.0000 C   0  0  0  0  0  0  0  0  0  0  0  0
    3.8971    1.5000   -0.0000 C   0  0  0  0  0  0  0  0  0  0  0  0
    1.2990   -0.0000   -0.0000 C   0  0  0  0  0  0  0  0  0  0  0  0
    3.8971   -0.0000   -0.0000 C   0  0  0  0  0  0  0  0  0  0  0  0
    0.0000   -0.7500   -0.0000 C   0  0  0  0  0  0  0  0  0  0  0  0
    2.5981   -0.7500   -0.0000 C   0  0  0  0  0  0  0  0  0  0  0  0
   -1.3703   -0.1399   -0.0000 N   0  0  0  0  0  0  0  0  0  0  0  0
   -0.1568   -2.2418   -0.0000 N   0  0  0  0  0  0  0  0  0  0  0  0
   -2.3740   -1.2546   -0.0000 C   0  0  0  0  0  0  0  0  0  0  0  0
   -1.6240   -2.5537   -0.0000 C   0  0  0  0  0  0  0  0  0  0  0  0
   -3.8740   -1.2546   -0.0000 C   0  0  0  0  0  0  0  0  0  0  0  0
   -2.3740   -3.8527   -0.0000 C   0  0  0  0  0  0  0  0  0  0  0  0
   -4.6240   -2.5537   -0.0000 C   0  0  0  0  0  0  0  0  0  0  0  0
   -4.6240    0.0444   -0.0000 C   0  0  0  0  0  0  0  0  0  0  0  0
   -3.8740   -3.8527   -0.0000 C   0  0  0  0  0  0  0  0  0  0  0  0
  1  2  1  0  0  0  0
  2  3  2  0  0  0  0
  2  4  1  0  0  0  0
  3  5  1  0  0  0  0
  4  6  2  0  0  0  0
  5  7  1  0  0  0  0
  5  8  2  0  0  0  0
  7  9  2  0  0  0  0
  7 10  1  0  0  0  0
  9 11  1  0  0  0  0
 10 12  1  0  0  0  0
 11 13  2  0  0  0  0
 12 14  2  0  0  0  0
 13 15  1  0  0  0  0
 13 16  1  0  0  0  0
 14 17  1  0  0  0  0
  6  8  1  0  0  0  0
 11 12  1  0  0  0  0
 15 17  2  0  0  0  0
M  END
>  <S/N>
128

>  <Compound ID>
C_133

>  <PubChem CID>
60646448

>  <Isomeric SMILES>
CC1=C2C(=CC=C1)NC(=N2)C3=CC(=CC=C3)Cl

>  <IC50 (�M)>
5.3

>  <pIC50>
5.28

$$$$
C_134
Actelion Java MolfileCreator 1.0

 17 19  0  0  0  0  0  0  0  0999 V2000
    2.5981    3.7500   -0.0000 F   0  0  0  0  0  0  0  0  0  0  0  0
    2.5981    2.2500   -0.0000 C   0  0  0  0  0  0  0  0  0  0  0  0
    1.2990    1.5000   -0.0000 C   0  0  0  0  0  0  0  0  0  0  0  0
    3.8971    1.5000   -0.0000 C   0  0  0  0  0  0  0  0  0  0  0  0
    1.2990   -0.0000   -0.0000 C   0  0  0  0  0  0  0  0  0  0  0  0
    3.8971   -0.0000   -0.0000 C   0  0  0  0  0  0  0  0  0  0  0  0
    0.0000   -0.7500   -0.0000 C   0  0  0  0  0  0  0  0  0  0  0  0
    2.5981   -0.7500   -0.0000 C   0  0  0  0  0  0  0  0  0  0  0  0
   -1.3703   -0.1399   -0.0000 N   0  0  0  0  0  0  0  0  0  0  0  0
   -0.1568   -2.2418   -0.0000 N   0  0  0  0  0  0  0  0  0  0  0  0
   -2.3740   -1.2546   -0.0000 C   0  0  0  0  0  0  0  0  0  0  0  0
   -1.6240   -2.5537   -0.0000 C   0  0  0  0  0  0  0  0  0  0  0  0
   -3.8740   -1.2546   -0.0000 C   0  0  0  0  0  0  0  0  0  0  0  0
   -2.3740   -3.8527   -0.0000 C   0  0  0  0  0  0  0  0  0  0  0  0
   -4.6240   -2.5537   -0.0000 C   0  0  0  0  0  0  0  0  0  0  0  0
   -4.6240    0.0444   -0.0000 C   0  0  0  0  0  0  0  0  0  0  0  0
   -3.8740   -3.8527   -0.0000 C   0  0  0  0  0  0  0  0  0  0  0  0
  1  2  1  0  0  0  0
  2  3  2  0  0  0  0
  2  4  1  0  0  0  0
  3  5  1  0  0  0  0
  4  6  2  0  0  0  0
  5  7  1  0  0  0  0
  5  8  2  0  0  0  0
  7  9  2  0  0  0  0
  7 10  1  0  0  0  0
  9 11  1  0  0  0  0
 10 12  1  0  0  0  0
 11 13  2  0  0  0  0
 12 14  2  0  0  0  0
 13 15  1  0  0  0  0
 13 16  1  0  0  0  0
 14 17  1  0  0  0  0
  6  8  1  0  0  0  0
 11 12  1  0  0  0  0
 15 17  2  0  0  0  0
M  END
>  <S/N>
129

>  <Compound ID>
C_134

>  <PubChem CID>
60646537

>  <Isomeric SMILES>
CC1=C2C(=CC=C1)NC(=N2)C3=CC(=CC=C3)F

>  <IC50 (�M)>
5.3

>  <pIC50>
5.28

$$$$
C_135
Actelion Java MolfileCreator 1.0

 19 21  0  0  0  0  0  0  0  0999 V2000
    3.4641    2.5000   -0.0000 Br  0  0  0  0  0  0  0  0  0  0  0  0
    3.4641    1.5000   -0.0000 C   0  0  0  0  0  0  0  0  0  0  0  0
    2.5981    1.0000   -0.0000 C   0  0  0  0  0  0  0  0  0  0  0  0
    4.3301    1.0000   -0.0000 C   0  0  0  0  0  0  0  0  0  0  0  0
    2.5981   -0.0000   -0.0000 C   0  0  0  0  0  0  0  0  0  0  0  0
    4.3301   -0.0000   -0.0000 C   0  0  0  0  0  0  0  0  0  0  0  0
    1.7321   -0.5000   -0.0000 C   0  0  0  0  0  0  0  0  0  0  0  0
    3.4641   -0.5000   -0.0000 C   0  0  0  0  0  0  0  0  0  0  0  0
    1.7321   -1.5000   -0.0000 O   0  0  0  0  0  0  0  0  0  0  0  0
    0.8660   -0.0000   -0.0000 C   0  0  0  0  0  0  0  0  0  0  0  0
    0.0000   -0.5000   -0.0000 N   0  0  0  0  0  0  0  0  0  0  0  0
   -0.9135   -0.0933   -0.0000 N   0  0  0  0  0  0  0  0  0  0  0  0
   -0.1045   -1.4945   -0.0000 C   0  0  0  0  0  0  0  0  0  0  0  0
   -1.5827   -0.8364   -0.0000 N   0  0  0  0  0  0  0  0  0  0  0  0
   -1.0827   -1.7024   -0.0000 C   0  0  0  0  0  0  0  0  0  0  0  0
    0.5646   -2.2377   -0.0000 C   0  0  0  0  0  0  0  0  0  0  0  0
   -1.3917   -2.6535   -0.0000 C   0  0  0  0  0  0  0  0  0  0  0  0
    0.2556   -3.1887   -0.0000 C   0  0  0  0  0  0  0  0  0  0  0  0
   -0.7226   -3.3966   -0.0000 C   0  0  0  0  0  0  0  0  0  0  0  0
  1  2  1  0  0  0  0
  2  3  2  0  0  0  0
  2  4  1  0  0  0  0
  3  5  1  0  0  0  0
  4  6  2  0  0  0  0
  5  7  1  0  0  0  0
  5  8  2  0  0  0  0
  7  9  2  0  0  0  0
  7 10  1  0  0  0  0
 10 11  1  0  0  0  0
 11 12  1  0  0  0  0
 11 13  1  0  0  0  0
 12 14  2  0  0  0  0
 13 15  2  0  0  0  0
 13 16  1  0  0  0  0
 15 17  1  0  0  0  0
 16 18  2  0  0  0  0
 17 19  2  0  0  0  0
  6  8  1  0  0  0  0
 14 15  1  0  0  0  0
 18 19  1  0  0  0  0
M  END
>  <S/N>
130

>  <Compound ID>
C_135

>  <PubChem CID>
60746809

>  <Isomeric SMILES>
C1=CC=C2C(=C1)N=NN2CC(=O)C3=CC(=CC=C3)Br

>  <IC50 (�M)>
2.79

>  <pIC50>
5.55

$$$$
C_136
Actelion Java MolfileCreator 1.0

 20 22  0  0  0  0  0  0  0  0999 V2000
    5.1962   -0.5000   -0.0000 Cl  0  0  0  0  0  0  0  0  0  0  0  0
    4.3301   -0.0000   -0.0000 C   0  0  0  0  0  0  0  0  0  0  0  0
    4.3301    1.0000   -0.0000 C   0  0  0  0  0  0  0  0  0  0  0  0
    3.4641   -0.5000   -0.0000 C   0  0  0  0  0  0  0  0  0  0  0  0
    5.1962    1.5000   -0.0000 Cl  0  0  0  0  0  0  0  0  0  0  0  0
    3.4641    1.5000   -0.0000 C   0  0  0  0  0  0  0  0  0  0  0  0
    2.5981   -0.0000   -0.0000 C   0  0  0  0  0  0  0  0  0  0  0  0
    2.5981    1.0000   -0.0000 C   0  0  0  0  0  0  0  0  0  0  0  0
    1.7321   -0.5000   -0.0000 C   0  0  0  0  0  0  0  0  0  0  0  0
    1.7321   -1.5000   -0.0000 O   0  0  0  0  0  0  0  0  0  0  0  0
    0.8660   -0.0000   -0.0000 C   0  0  0  0  0  0  0  0  0  0  0  0
    0.0000   -0.5000   -0.0000 N   0  0  0  0  0  0  0  0  0  0  0  0
   -0.9135   -0.0933   -0.0000 N   0  0  0  0  0  0  0  0  0  0  0  0
   -0.1045   -1.4945   -0.0000 C   0  0  0  0  0  0  0  0  0  0  0  0
   -1.5827   -0.8364   -0.0000 N   0  0  0  0  0  0  0  0  0  0  0  0
   -1.0827   -1.7024   -0.0000 C   0  0  0  0  0  0  0  0  0  0  0  0
    0.5646   -2.2377   -0.0000 C   0  0  0  0  0  0  0  0  0  0  0  0
   -1.3917   -2.6535   -0.0000 C   0  0  0  0  0  0  0  0  0  0  0  0
    0.2556   -3.1887   -0.0000 C   0  0  0  0  0  0  0  0  0  0  0  0
   -0.7226   -3.3966   -0.0000 C   0  0  0  0  0  0  0  0  0  0  0  0
  1  2  1  0  0  0  0
  2  3  2  0  0  0  0
  2  4  1  0  0  0  0
  3  5  1  0  0  0  0
  3  6  1  0  0  0  0
  4  7  2  0  0  0  0
  6  8  2  0  0  0  0
  7  9  1  0  0  0  0
  9 10  2  0  0  0  0
  9 11  1  0  0  0  0
 11 12  1  0  0  0  0
 12 13  1  0  0  0  0
 12 14  1  0  0  0  0
 13 15  2  0  0  0  0
 14 16  2  0  0  0  0
 14 17  1  0  0  0  0
 16 18  1  0  0  0  0
 17 19  2  0  0  0  0
 18 20  2  0  0  0  0
  7  8  1  0  0  0  0
 15 16  1  0  0  0  0
 19 20  1  0  0  0  0
M  END
>  <S/N>
131

>  <Compound ID>
C_136

>  <PubChem CID>
60747003

>  <Isomeric SMILES>
C1=CC=C2C(=C1)N=NN2CC(=O)C3=CC(=C(C=C3)Cl)Cl

>  <IC50 (�M)>
3.9

>  <pIC50>
5.41

$$$$
C_137
Actelion Java MolfileCreator 1.0

 23 24  0  0  1  0  0  0  0  0999 V2000
    1.7321   -1.5000   -0.0000 O   0  0  0  0  0  0  0  0  0  0  0  0
    1.7321   -0.5000   -0.0000 C   0  0  0  0  0  0  0  0  0  0  0  0
    2.5981   -2.0000   -0.0000 C   0  0  0  0  0  0  0  0  0  0  0  0
    0.8660   -0.0000   -0.0000 O   0  0  0  0  0  0  0  0  0  0  0  0
    2.5981    0.0000   -0.0000 C   0  0  0  0  0  0  0  0  0  0  0  0
    3.4641   -1.5000   -0.0000 C   0  0  0  0  0  0  0  0  0  0  0  0
    2.5981   -3.0000   -0.0000 C   0  0  0  0  0  0  0  0  0  0  0  0
    0.8660    1.0000   -0.0000 C   0  0  0  0  0  0  0  0  0  0  0  0
    2.5981    1.0000   -0.0000 O   0  0  0  0  0  0  0  0  0  0  0  0
    3.4641   -0.5000   -0.0000 C   0  0  0  0  0  0  0  0  0  0  0  0
    4.3301   -2.0000   -0.0000 N   0  0  0  0  0  0  0  0  0  0  0  0
    4.3301    0.0000   -0.0000 O   0  0  0  0  0  0  0  0  0  0  0  0
    5.1962   -1.5000   -0.0000 C   0  0  0  0  0  0  0  0  0  0  0  0
    5.1962   -0.5000   -0.0000 C   0  0  0  0  0  0  0  0  0  0  0  0
    6.0622   -2.0000   -0.0000 C   0  0  0  0  0  0  0  0  0  0  0  0
    6.0622    0.0000   -0.0000 C   0  0  0  0  0  0  0  0  0  0  0  0
    6.0622   -3.0000   -0.0000 O   0  0  0  0  0  0  0  0  0  0  0  0
    6.9282   -1.5000   -0.0000 C   0  0  0  0  0  0  0  0  0  0  0  0
    6.9282   -0.5000   -0.0000 C   0  0  0  0  0  0  0  0  0  0  0  0
    6.0622    1.0000   -0.0000 C   0  0  0  0  0  0  0  0  0  0  0  0
    7.7942   -2.0000   -0.0000 O   0  0  0  0  0  0  0  0  0  0  0  0
    7.7942    0.0000   -0.0000 O   0  0  0  0  0  0  0  0  0  0  0  0
    6.9282    1.5000   -0.0000 O   0  0  0  0  0  0  0  0  0  0  0  0
  1  2  1  0  0  0  0
  1  3  1  0  0  0  0
  2  4  1  6  0  0  0
  2  5  1  0  0  0  0
  3  6  1  0  0  0  0
  3  7  1  1  0  0  0
  4  8  1  0  0  0  0
  5  9  1  6  0  0  0
  5 10  1  0  0  0  0
  6 11  1  6  0  0  0
 10 12  1  1  0  0  0
 13 11  1  1  0  0  0
 13 14  1  0  0  0  0
 13 15  1  0  0  0  0
 14 16  2  0  0  0  0
 15 17  1  1  0  0  0
 15 18  1  0  0  0  0
 16 19  1  0  0  0  0
 16 20  1  0  0  0  0
 18 21  1  6  0  0  0
 19 22  1  1  0  0  0
 20 23  1  0  0  0  0
  6 10  1  0  0  0  0
 18 19  1  0  0  0  0
M  END
>  <S/N>
132

>  <Compound ID>
C_137

>  <PubChem CID>
70682078

>  <Isomeric SMILES>
C[C@@H]1[C@H]([C@@H]([C@H]([C@H](O1)OC)O)O)N[C@H]2C=C([C@H]([C@@H]([C@H]2O)O)O)CO

>  <IC50 (�M)>
3.2

>  <pIC50>
5.49

$$$$
C_138
Actelion Java MolfileCreator 1.0

 24 25  0  0  1  0  0  0  0  0999 V2000
    1.7321   -1.5000   -0.0000 O   0  0  0  0  0  0  0  0  0  0  0  0
    1.7321   -0.5000   -0.0000 C   0  0  0  0  0  0  0  0  0  0  0  0
    2.5981   -2.0000   -0.0000 C   0  0  0  0  0  0  0  0  0  0  0  0
    0.8660   -0.0000   -0.0000 O   0  0  0  0  0  0  0  0  0  0  0  0
    2.5981    0.0000   -0.0000 C   0  0  0  0  0  0  0  0  0  0  0  0
    3.4641   -1.5000   -0.0000 C   0  0  0  0  0  0  0  0  0  0  0  0
    2.5981   -3.0000   -0.0000 C   0  0  0  0  0  0  0  0  0  0  0  0
    0.8660    1.0000   -0.0000 C   0  0  0  0  0  0  0  0  0  0  0  0
    2.5981    1.0000   -0.0000 O   0  0  0  0  0  0  0  0  0  0  0  0
    3.4641   -0.5000   -0.0000 C   0  0  0  0  0  0  0  0  0  0  0  0
    4.3301   -2.0000   -0.0000 N   0  0  0  0  0  0  0  0  0  0  0  0
    1.7321   -3.5000   -0.0000 O   0  0  0  0  0  0  0  0  0  0  0  0
    4.3301    0.0000   -0.0000 O   0  0  0  0  0  0  0  0  0  0  0  0
    5.1962   -1.5000   -0.0000 C   0  0  0  0  0  0  0  0  0  0  0  0
    5.1962   -0.5000   -0.0000 C   0  0  0  0  0  0  0  0  0  0  0  0
    6.0622   -2.0000   -0.0000 C   0  0  0  0  0  0  0  0  0  0  0  0
    6.0622    0.0000   -0.0000 C   0  0  0  0  0  0  0  0  0  0  0  0
    6.0622   -3.0000   -0.0000 O   0  0  0  0  0  0  0  0  0  0  0  0
    6.9282   -1.5000   -0.0000 C   0  0  0  0  0  0  0  0  0  0  0  0
    6.9282   -0.5000   -0.0000 C   0  0  0  0  0  0  0  0  0  0  0  0
    6.0622    1.0000   -0.0000 C   0  0  0  0  0  0  0  0  0  0  0  0
    7.7942   -2.0000   -0.0000 O   0  0  0  0  0  0  0  0  0  0  0  0
    7.7942    0.0000   -0.0000 O   0  0  0  0  0  0  0  0  0  0  0  0
    6.9282    1.5000   -0.0000 O   0  0  0  0  0  0  0  0  0  0  0  0
  1  2  1  0  0  0  0
  1  3  1  0  0  0  0
  2  4  1  6  0  0  0
  2  5  1  0  0  0  0
  3  6  1  0  0  0  0
  3  7  1  1  0  0  0
  4  8  1  0  0  0  0
  5  9  1  6  0  0  0
  5 10  1  0  0  0  0
  6 11  1  6  0  0  0
  7 12  1  0  0  0  0
 10 13  1  1  0  0  0
 14 11  1  1  0  0  0
 14 15  1  0  0  0  0
 14 16  1  0  0  0  0
 15 17  2  0  0  0  0
 16 18  1  1  0  0  0
 16 19  1  0  0  0  0
 17 20  1  0  0  0  0
 17 21  1  0  0  0  0
 19 22  1  6  0  0  0
 20 23  1  1  0  0  0
 21 24  1  0  0  0  0
  6 10  1  0  0  0  0
 19 20  1  0  0  0  0
M  END
>  <S/N>
133

>  <Compound ID>
C_138

>  <PubChem CID>
70684192

>  <Isomeric SMILES>
CO[C@@H]1[C@@H]([C@H]([C@@H]([C@H](O1)CO)N[C@H]2C=C([C@H]([C@@H]([C@H]2O)O)O)CO)O)O

>  <IC50 (�M)>
7.2

>  <pIC50>
5.14

$$$$
C_139
Actelion Java MolfileCreator 1.0

 24 25  0  0  1  0  0  0  0  0999 V2000
    2.5981    0.0000   -0.0000 O   0  0  0  0  0  0  0  0  0  0  0  0
    1.7321   -0.5000   -0.0000 C   0  0  0  0  0  0  0  0  0  0  0  0
    3.4641   -0.5000   -0.0000 C   0  0  0  0  0  0  0  0  0  0  0  0
    0.8660   -0.0000   -0.0000 O   0  0  0  0  0  0  0  0  0  0  0  0
    1.7321   -1.5000   -0.0000 C   0  0  0  0  0  0  0  0  0  0  0  0
    3.4641   -1.5000   -0.0000 C   0  0  0  0  0  0  0  0  0  0  0  0
    4.3301    0.0000   -0.0000 C   0  0  0  0  0  0  0  0  0  0  0  0
    0.0000   -0.5000   -0.0000 C   0  0  0  0  0  0  0  0  0  0  0  0
    0.8660   -2.0000   -0.0000 O   0  0  0  0  0  0  0  0  0  0  0  0
    2.5981   -2.0000   -0.0000 C   0  0  0  0  0  0  0  0  0  0  0  0
    4.3301   -2.0000   -0.0000 N   0  0  0  0  0  0  0  0  0  0  0  0
    2.5981   -3.0000   -0.0000 O   0  0  0  0  0  0  0  0  0  0  0  0
    5.1962   -1.5000   -0.0000 C   0  0  0  0  0  0  0  0  0  0  0  0
    6.0622   -2.0000   -0.0000 C   0  0  0  0  0  0  0  0  0  0  0  0
    5.1962   -0.5000   -0.0000 C   0  0  0  0  0  0  0  0  0  0  0  0
    6.0622   -3.0000   -0.0000 O   0  0  0  0  0  0  0  0  0  0  0  0
    6.9282   -1.5000   -0.0000 C   0  0  0  0  0  0  0  0  0  0  0  0
    6.0622    0.0000   -0.0000 C   0  0  0  0  0  0  0  0  0  0  0  0
    7.7942   -2.0000   -0.0000 O   0  0  0  0  0  0  0  0  0  0  0  0
    6.9282   -0.5000   -0.0000 C   0  0  0  0  0  0  0  0  0  0  0  0
    5.1962    0.5000   -0.0000 O   0  0  0  0  0  0  0  0  0  0  0  0
    6.0622    1.0000   -0.0000 C   0  0  0  0  0  0  0  0  0  0  0  0
    7.7942    0.0000   -0.0000 O   0  0  0  0  0  0  0  0  0  0  0  0
    6.9282    1.5000   -0.0000 O   0  0  0  0  0  0  0  0  0  0  0  0
  1  2  1  0  0  0  0
  1  3  1  0  0  0  0
  2  4  1  1  0  0  0
  2  5  1  0  0  0  0
  3  6  1  0  0  0  0
  3  7  1  6  0  0  0
  4  8  1  0  0  0  0
  5  9  1  1  0  0  0
  5 10  1  0  0  0  0
  6 11  1  6  0  0  0
 10 12  1  6  0  0  0
 13 11  1  1  0  0  0
 13 14  1  0  0  0  0
 13 15  1  0  0  0  0
 14 16  1  1  0  0  0
 14 17  1  0  0  0  0
 15 18  1  0  0  0  0
 17 19  1  6  0  0  0
 17 20  1  0  0  0  0
 18 21  1  1  0  0  0
 18 22  1  0  0  0  0
 20 23  1  1  0  0  0
 22 24  1  0  0  0  0
  6 10  1  0  0  0  0
 18 20  1  0  0  0  0
M  END
>  <S/N>
134

>  <Compound ID>
C_139

>  <PubChem CID>
70688441

>  <Isomeric SMILES>
C[C@@H]1[C@@H]([C@@H]([C@H]([C@H](O1)OC)O)O)N[C@H]2C[C@@]([C@H]([C@@H]([C@H]2O)O)O)(CO)O

>  <IC50 (�M)>
0.65

>  <pIC50>
6.19

$$$$
C_140
Actelion Java MolfileCreator 1.0

 23 24  0  0  1  0  0  0  0  0999 V2000
    1.7321   -2.5000   -0.0000 O   0  0  0  0  0  0  0  0  0  0  0  0
    2.5981   -2.0000   -0.0000 C   0  0  0  0  0  0  0  0  0  0  0  0
    3.4641   -1.5000   -0.0000 C   0  0  0  0  0  0  0  0  0  0  0  0
    1.7321   -1.5000   -0.0000 C   0  0  0  0  0  0  0  0  0  0  0  0
    2.5981   -3.0000   -0.0000 C   0  0  0  0  0  0  0  0  0  0  0  0
    4.3301   -2.0000   -0.0000 O   0  0  0  0  0  0  0  0  0  0  0  0
    3.4641   -0.5000   -0.0000 C   0  0  0  0  0  0  0  0  0  0  0  0
    1.7321   -0.5000   -0.0000 C   0  0  0  0  0  0  0  0  0  0  0  0
    1.7321   -3.5000   -0.0000 O   0  0  0  0  0  0  0  0  0  0  0  0
    4.3301   -0.0000   -0.0000 O   0  0  0  0  0  0  0  0  0  0  0  0
    2.5981    0.0000   -0.0000 C   0  0  0  0  0  0  0  0  0  0  0  0
    0.8660   -0.0000   -0.0000 N   0  0  0  0  0  0  0  0  0  0  0  0
    2.5981    1.0000   -0.0000 O   0  0  0  0  0  0  0  0  0  0  0  0
    0.0000   -0.5000   -0.0000 C   0  0  0  0  0  0  0  0  0  0  0  0
   -0.8660    0.0000   -0.0000 C   0  0  0  0  0  0  0  0  0  0  0  0
   -0.0000   -1.5000   -0.0000 C   0  0  0  0  0  0  0  0  0  0  0  0
   -0.8660    1.0000   -0.0000 O   0  0  0  0  0  0  0  0  0  0  0  0
   -1.7321   -0.5000   -0.0000 C   0  0  0  0  0  0  0  0  0  0  0  0
   -0.8660   -2.0000   -0.0000 C   0  0  0  0  0  0  0  0  0  0  0  0
    0.8660   -2.0000   -0.0000 C   0  0  0  0  0  0  0  0  0  0  0  0
   -2.5981    0.0000   -0.0000 O   0  0  0  0  0  0  0  0  0  0  0  0
   -1.7321   -1.5000   -0.0000 C   0  0  0  0  0  0  0  0  0  0  0  0
   -2.5981   -2.0000   -0.0000 O   0  0  0  0  0  0  0  0  0  0  0  0
  2  1  1  6  0  0  0
  2  3  1  0  0  0  0
  2  4  1  0  0  0  0
  2  5  1  0  0  0  0
  3  6  1  6  0  0  0
  3  7  1  0  0  0  0
  4  8  1  0  0  0  0
  5  9  1  0  0  0  0
  7 10  1  1  0  0  0
  7 11  1  0  0  0  0
  8 12  1  6  0  0  0
 11 13  1  6  0  0  0
 14 12  1  1  0  0  0
 14 15  1  0  0  0  0
 14 16  1  0  0  0  0
 15 17  1  1  0  0  0
 15 18  1  0  0  0  0
 16 19  1  0  0  0  0
 16 20  1  1  0  0  0
 18 21  1  6  0  0  0
 18 22  1  0  0  0  0
 22 23  1  6  0  0  0
  8 11  1  0  0  0  0
 19 22  1  0  0  0  0
M  END
>  <S/N>
135

>  <Compound ID>
C_140

>  <PubChem CID>
70688442

>  <Isomeric SMILES>
C[C@H]1C[C@@H]([C@@H]([C@H]([C@H]1N[C@H]2C[C@@]([C@H]([C@@H]([C@H]2O)O)O)(CO)O)O)O)O

>  <IC50 (�M)>
0.07

>  <pIC50>
7.17

$$$$
C_141
Actelion Java MolfileCreator 1.0

 23 24  0  0  1  0  0  0  0  0999 V2000
    1.7321   -2.5000   -0.0000 O   0  0  0  0  0  0  0  0  0  0  0  0
    2.5981   -2.0000   -0.0000 C   0  0  0  0  0  0  0  0  0  0  0  0
    3.4641   -1.5000   -0.0000 C   0  0  0  0  0  0  0  0  0  0  0  0
    1.7321   -1.5000   -0.0000 C   0  0  0  0  0  0  0  0  0  0  0  0
    2.5981   -3.0000   -0.0000 C   0  0  0  0  0  0  0  0  0  0  0  0
    4.3301   -2.0000   -0.0000 O   0  0  0  0  0  0  0  0  0  0  0  0
    3.4641   -0.5000   -0.0000 C   0  0  0  0  0  0  0  0  0  0  0  0
    1.7321   -0.5000   -0.0000 C   0  0  0  0  0  0  0  0  0  0  0  0
    1.7321   -3.5000   -0.0000 O   0  0  0  0  0  0  0  0  0  0  0  0
    4.3301   -0.0000   -0.0000 O   0  0  0  0  0  0  0  0  0  0  0  0
    2.5981    0.0000   -0.0000 C   0  0  0  0  0  0  0  0  0  0  0  0
    0.8660   -0.0000   -0.0000 N   0  0  0  0  0  0  0  0  0  0  0  0
    2.5981    1.0000   -0.0000 O   0  0  0  0  0  0  0  0  0  0  0  0
    0.0000   -0.5000   -0.0000 C   0  0  0  0  0  0  0  0  0  0  0  0
   -0.8660    0.0000   -0.0000 C   0  0  0  0  0  0  0  0  0  0  0  0
   -0.0000   -1.5000   -0.0000 C   0  0  0  0  0  0  0  0  0  0  0  0
   -0.8660    1.0000   -0.0000 O   0  0  0  0  0  0  0  0  0  0  0  0
   -1.7321   -0.5000   -0.0000 C   0  0  0  0  0  0  0  0  0  0  0  0
   -0.8660   -2.0000   -0.0000 C   0  0  0  0  0  0  0  0  0  0  0  0
    0.8660   -2.0000   -0.0000 C   0  0  0  0  0  0  0  0  0  0  0  0
   -2.5981    0.0000   -0.0000 O   0  0  0  0  0  0  0  0  0  0  0  0
   -1.7321   -1.5000   -0.0000 C   0  0  0  0  0  0  0  0  0  0  0  0
   -2.5981   -2.0000   -0.0000 N   0  0  0  0  0  0  0  0  0  0  0  0
  2  1  1  6  0  0  0
  2  3  1  0  0  0  0
  2  4  1  0  0  0  0
  2  5  1  0  0  0  0
  3  6  1  6  0  0  0
  3  7  1  0  0  0  0
  4  8  1  0  0  0  0
  5  9  1  0  0  0  0
  7 10  1  1  0  0  0
  7 11  1  0  0  0  0
  8 12  1  6  0  0  0
 11 13  1  6  0  0  0
 14 12  1  1  0  0  0
 14 15  1  0  0  0  0
 14 16  1  0  0  0  0
 15 17  1  1  0  0  0
 15 18  1  0  0  0  0
 16 19  1  0  0  0  0
 16 20  1  1  0  0  0
 18 21  1  6  0  0  0
 18 22  1  0  0  0  0
 22 23  1  6  0  0  0
  8 11  1  0  0  0  0
 19 22  1  0  0  0  0
M  END
>  <S/N>
136

>  <Compound ID>
C_141

>  <PubChem CID>
70688446

>  <Isomeric SMILES>
C[C@H]1C[C@@H]([C@@H]([C@H]([C@H]1N[C@H]2C[C@@]([C@H]([C@@H]([C@H]2O)O)O)(CO)O)O)O)N

>  <IC50 (�M)>
1.5

>  <pIC50>
5.82

$$$$
C_144
Actelion Java MolfileCreator 1.0

 25 26  0  0  1  0  0  0  0  0999 V2000
    2.5981    0.0000   -0.0000 O   0  0  0  0  0  0  0  0  0  0  0  0
    1.7321   -0.5000   -0.0000 C   0  0  0  0  0  0  0  0  0  0  0  0
    3.4641   -0.5000   -0.0000 C   0  0  0  0  0  0  0  0  0  0  0  0
    0.8660   -0.0000   -0.0000 O   0  0  0  0  0  0  0  0  0  0  0  0
    1.7321   -1.5000   -0.0000 C   0  0  0  0  0  0  0  0  0  0  0  0
    3.4641   -1.5000   -0.0000 C   0  0  0  0  0  0  0  0  0  0  0  0
    4.3301    0.0000   -0.0000 C   0  0  0  0  0  0  0  0  0  0  0  0
    0.0000   -0.5000   -0.0000 C   0  0  0  0  0  0  0  0  0  0  0  0
    0.8660   -2.0000   -0.0000 O   0  0  0  0  0  0  0  0  0  0  0  0
    2.5981   -2.0000   -0.0000 C   0  0  0  0  0  0  0  0  0  0  0  0
    4.3301   -2.0000   -0.0000 N   0  0  0  0  0  0  0  0  0  0  0  0
    4.3301    1.0000   -0.0000 O   0  0  0  0  0  0  0  0  0  0  0  0
    2.5981   -3.0000   -0.0000 O   0  0  0  0  0  0  0  0  0  0  0  0
    5.1962   -1.5000   -0.0000 C   0  0  0  0  0  0  0  0  0  0  0  0
    6.0622   -2.0000   -0.0000 C   0  0  0  0  0  0  0  0  0  0  0  0
    5.1962   -0.5000   -0.0000 C   0  0  0  0  0  0  0  0  0  0  0  0
    6.0622   -3.0000   -0.0000 O   0  0  0  0  0  0  0  0  0  0  0  0
    6.9282   -1.5000   -0.0000 C   0  0  0  0  0  0  0  0  0  0  0  0
    6.0622    0.0000   -0.0000 C   0  0  0  0  0  0  0  0  0  0  0  0
    7.7942   -2.0000   -0.0000 O   0  0  0  0  0  0  0  0  0  0  0  0
    6.9282   -0.5000   -0.0000 C   0  0  0  0  0  0  0  0  0  0  0  0
    5.1962    0.5000   -0.0000 O   0  0  0  0  0  0  0  0  0  0  0  0
    6.0622    1.0000   -0.0000 C   0  0  0  0  0  0  0  0  0  0  0  0
    7.7942    0.0000   -0.0000 O   0  0  0  0  0  0  0  0  0  0  0  0
    6.9282    1.5000   -0.0000 O   0  0  0  0  0  0  0  0  0  0  0  0
  1  2  1  0  0  0  0
  1  3  1  0  0  0  0
  2  4  1  1  0  0  0
  2  5  1  0  0  0  0
  3  6  1  0  0  0  0
  3  7  1  6  0  0  0
  4  8  1  0  0  0  0
  5  9  1  1  0  0  0
  5 10  1  0  0  0  0
  6 11  1  6  0  0  0
  7 12  1  0  0  0  0
 10 13  1  6  0  0  0
 14 11  1  1  0  0  0
 14 15  1  0  0  0  0
 14 16  1  0  0  0  0
 15 17  1  1  0  0  0
 15 18  1  0  0  0  0
 16 19  1  0  0  0  0
 18 20  1  6  0  0  0
 18 21  1  0  0  0  0
 19 22  1  1  0  0  0
 19 23  1  0  0  0  0
 21 24  1  1  0  0  0
 23 25  1  0  0  0  0
  6 10  1  0  0  0  0
 19 21  1  0  0  0  0
M  END
>  <S/N>
137

>  <Compound ID>
C_144

>  <PubChem CID>
70692637

>  <Isomeric SMILES>
CO[C@@H]1[C@@H]([C@H]([C@H]([C@H](O1)CO)N[C@H]2C[C@@]([C@H]([C@@H]([C@H]2O)O)O)(CO)O)O)O

>  <IC50 (�M)>
0.1

>  <pIC50>
7

$$$$
C_149
Actelion Java MolfileCreator 1.0

 22 23  0  0  0  0  0  0  0  0999 V2000
    2.5981    1.0000   -0.0000 O   0  0  0  0  0  0  0  0  0  0  0  0
    2.5981   -0.0000   -0.0000 C   0  0  0  0  0  0  0  0  0  0  0  0
    3.4641   -0.5000   -0.0000 C   0  0  0  0  0  0  0  0  0  0  0  0
    1.7321   -0.5000   -0.0000 C   0  0  0  0  0  0  0  0  0  0  0  0
    4.3301   -0.0000   -0.0000 C   0  0  0  0  0  0  0  0  0  0  0  0
    0.8660   -0.0000   -0.0000 C   0  0  0  0  0  0  0  0  0  0  0  0
    4.3301    1.0000   -0.0000 O   0  0  0  0  0  0  0  0  0  0  0  0
    5.1962   -0.5000   -0.0000 C   0  0  0  0  0  0  0  0  0  0  0  0
    0.0000   -0.5000   -0.0000 C   0  0  0  0  0  0  0  0  0  0  0  0
    6.0622    0.0000   -0.0000 C   0  0  0  0  0  0  0  0  0  0  0  0
    5.1962   -1.5000   -0.0000 C   0  0  0  0  0  0  0  0  0  0  0  0
   -0.8660    0.0000   -0.0000 C   0  0  0  0  0  0  0  0  0  0  0  0
   -0.0000   -1.5000   -0.0000 C   0  0  0  0  0  0  0  0  0  0  0  0
    6.0622    1.0000   -0.0000 O   0  0  0  0  0  0  0  0  0  0  0  0
    6.9282   -0.5000   -0.0000 C   0  0  0  0  0  0  0  0  0  0  0  0
    6.0622   -2.0000   -0.0000 C   0  0  0  0  0  0  0  0  0  0  0  0
   -1.7321   -0.5000   -0.0000 C   0  0  0  0  0  0  0  0  0  0  0  0
   -0.8660   -2.0000   -0.0000 C   0  0  0  0  0  0  0  0  0  0  0  0
    6.9282   -1.5000   -0.0000 C   0  0  0  0  0  0  0  0  0  0  0  0
   -2.5981    0.0000   -0.0000 O   0  0  0  0  0  0  0  0  0  0  0  0
   -1.7321   -1.5000   -0.0000 C   0  0  0  0  0  0  0  0  0  0  0  0
   -2.5981   -2.0000   -0.0000 O   0  0  0  0  0  0  0  0  0  0  0  0
  1  2  2  0  0  0  0
  2  3  1  0  0  0  0
  2  4  1  0  0  0  0
  3  5  2  0  0  0  0
  4  6  2  0  0  0  0
  5  7  1  0  0  0  0
  5  8  1  0  0  0  0
  6  9  1  0  0  0  0
  8 10  2  0  0  0  0
  8 11  1  0  0  0  0
  9 12  2  0  0  0  0
  9 13  1  0  0  0  0
 10 14  1  0  0  0  0
 10 15  1  0  0  0  0
 11 16  2  0  0  0  0
 12 17  1  0  0  0  0
 13 18  2  0  0  0  0
 15 19  2  0  0  0  0
 17 20  1  0  0  0  0
 17 21  2  0  0  0  0
 21 22  1  0  0  0  0
 16 19  1  0  0  0  0
 18 21  1  0  0  0  0
M  END
>  <S/N>
138

>  <Compound ID>
C_149

>  <PubChem CID>
71569087

>  <Isomeric SMILES>
C1=CC=C(C(=C1)/C(=C/C(=O)/C=C/C2=CC(=C(C=C2)O)O)/O)O

>  <IC50 (�M)>
14.3

>  <pIC50>
4.84

$$$$
C_150
Actelion Java MolfileCreator 1.0

 22 23  0  0  1  0  0  0  0  0999 V2000
    5.1962   -2.5000   -0.0000 O   0  0  0  0  0  0  0  0  0  0  0  0
    4.3301   -2.0000   -0.0000 C   0  0  0  0  0  0  0  0  0  0  0  0
    5.1962   -1.5000   -0.0000 C   0  0  0  0  0  0  0  0  0  0  0  0
    3.4641   -1.5000   -0.0000 C   0  0  0  0  0  0  0  0  0  0  0  0
    4.3301   -3.0000   -0.0000 C   0  0  0  0  0  0  0  0  0  0  0  0
    6.0622   -2.0000   -0.0000 O   0  0  0  0  0  0  0  0  0  0  0  0
    5.1962   -0.5000   -0.0000 C   0  0  0  0  0  0  0  0  0  0  0  0
    3.4641   -0.5000   -0.0000 C   0  0  0  0  0  0  0  0  0  0  0  0
    3.4641   -3.5000   -0.0000 O   0  0  0  0  0  0  0  0  0  0  0  0
    6.0622   -0.0000   -0.0000 O   0  0  0  0  0  0  0  0  0  0  0  0
    4.3301    0.0000   -0.0000 C   0  0  0  0  0  0  0  0  0  0  0  0
    2.5981   -0.0000   -0.0000 N   0  0  0  0  0  0  0  0  0  0  0  0
    4.3301    1.0000   -0.0000 O   0  0  0  0  0  0  0  0  0  0  0  0
    1.7321   -0.5000   -0.0000 C   0  0  0  0  0  0  0  0  0  0  0  0
    1.7321   -1.5000   -0.0000 C   0  0  0  0  0  0  0  0  0  0  0  0
    0.8660   -0.0000   -0.0000 C   0  0  0  0  0  0  0  0  0  0  0  0
    0.8660   -2.0000   -0.0000 C   0  0  0  0  0  0  0  0  0  0  0  0
    2.5981   -2.0000   -0.0000 C   0  0  0  0  0  0  0  0  0  0  0  0
    0.0000   -0.5000   -0.0000 O   0  0  0  0  0  0  0  0  0  0  0  0
    0.8660   -3.0000   -0.0000 C   0  0  0  0  0  0  0  0  0  0  0  0
    2.5981   -3.0000   -0.0000 C   0  0  0  0  0  0  0  0  0  0  0  0
    1.7321   -3.5000   -0.0000 C   0  0  0  0  0  0  0  0  0  0  0  0
  2  1  1  6  0  0  0
  2  3  1  0  0  0  0
  2  4  1  0  0  0  0
  2  5  1  0  0  0  0
  3  6  1  6  0  0  0
  3  7  1  0  0  0  0
  4  8  1  0  0  0  0
  5  9  1  0  0  0  0
  7 10  1  1  0  0  0
  7 11  1  0  0  0  0
  8 12  1  6  0  0  0
 11 13  1  6  0  0  0
 14 12  1  1  0  0  0
 14 15  1  0  0  0  0
 14 16  1  0  0  0  0
 15 17  2  0  0  0  0
 15 18  1  0  0  0  0
 16 19  1  0  0  0  0
 17 20  1  0  0  0  0
 18 21  2  0  0  0  0
 20 22  2  0  0  0  0
  8 11  1  0  0  0  0
 21 22  1  0  0  0  0
M  END
>  <S/N>
139

>  <Compound ID>
C_150

>  <PubChem CID>
73347264

>  <Isomeric SMILES>
C1[C@@H]([C@@H]([C@H]([C@@H]([C@]1(CO)O)O)O)O)N[C@H](CO)C2=CC=CC=C2

>  <IC50 (�M)>
34

>  <pIC50>
4.47

$$$$
C_151
Actelion Java MolfileCreator 1.0

 22 23  0  0  1  0  0  0  0  0999 V2000
    5.1962   -2.5000   -0.0000 O   0  0  0  0  0  0  0  0  0  0  0  0
    4.3301   -2.0000   -0.0000 C   0  0  0  0  0  0  0  0  0  0  0  0
    5.1962   -1.5000   -0.0000 C   0  0  0  0  0  0  0  0  0  0  0  0
    3.4641   -1.5000   -0.0000 C   0  0  0  0  0  0  0  0  0  0  0  0
    4.3301   -3.0000   -0.0000 C   0  0  0  0  0  0  0  0  0  0  0  0
    6.0622   -2.0000   -0.0000 O   0  0  0  0  0  0  0  0  0  0  0  0
    5.1962   -0.5000   -0.0000 C   0  0  0  0  0  0  0  0  0  0  0  0
    3.4641   -0.5000   -0.0000 C   0  0  0  0  0  0  0  0  0  0  0  0
    3.4641   -3.5000   -0.0000 O   0  0  0  0  0  0  0  0  0  0  0  0
    6.0622   -0.0000   -0.0000 O   0  0  0  0  0  0  0  0  0  0  0  0
    4.3301    0.0000   -0.0000 C   0  0  0  0  0  0  0  0  0  0  0  0
    2.5981   -0.0000   -0.0000 N   0  0  0  0  0  0  0  0  0  0  0  0
    4.3301    1.0000   -0.0000 O   0  0  0  0  0  0  0  0  0  0  0  0
    1.7321   -0.5000   -0.0000 C   0  0  0  0  0  0  0  0  0  0  0  0
    0.8660   -0.0000   -0.0000 C   0  0  0  0  0  0  0  0  0  0  0  0
    0.8660    1.0000   -0.0000 O   0  0  0  0  0  0  0  0  0  0  0  0
    0.0000   -0.5000   -0.0000 C   0  0  0  0  0  0  0  0  0  0  0  0
   -0.8660    0.0000   -0.0000 C   0  0  0  0  0  0  0  0  0  0  0  0
   -0.0000   -1.5000   -0.0000 C   0  0  0  0  0  0  0  0  0  0  0  0
   -1.7321   -0.5000   -0.0000 C   0  0  0  0  0  0  0  0  0  0  0  0
   -0.8660   -2.0000   -0.0000 C   0  0  0  0  0  0  0  0  0  0  0  0
   -1.7321   -1.5000   -0.0000 C   0  0  0  0  0  0  0  0  0  0  0  0
  2  1  1  6  0  0  0
  2  3  1  0  0  0  0
  2  4  1  0  0  0  0
  2  5  1  0  0  0  0
  3  6  1  1  0  0  0
  3  7  1  0  0  0  0
  4  8  1  0  0  0  0
  5  9  1  0  0  0  0
  7 10  1  6  0  0  0
  7 11  1  0  0  0  0
  8 12  1  6  0  0  0
 11 13  1  6  0  0  0
 12 14  1  0  0  0  0
 14 15  1  0  0  0  0
 15 16  1  1  0  0  0
 15 17  1  0  0  0  0
 17 18  2  0  0  0  0
 17 19  1  0  0  0  0
 18 20  1  0  0  0  0
 19 21  2  0  0  0  0
 20 22  2  0  0  0  0
  8 11  1  0  0  0  0
 21 22  1  0  0  0  0
M  END
>  <S/N>
140

>  <Compound ID>
C_151

>  <PubChem CID>
73350356

>  <Isomeric SMILES>
C1[C@@H]([C@@H]([C@@H]([C@H]([C@]1(CO)O)O)O)O)NC[C@@H](C2=CC=CC=C2)O

>  <IC50 (�M)>
0.01

>  <pIC50>
8.24

$$$$
C_154
Actelion Java MolfileCreator 1.0

 13 13  0  0  0  0  0  0  0  0999 V2000
    4.3301   -0.0000   -0.0000 O   0  0  0  0  0  0  0  0  0  0  0  0
    3.4641   -0.5000   -0.0000 C   0  0  0  0  0  0  0  0  0  0  0  0
    2.5981   -0.0000   -0.0000 C   0  0  0  0  0  0  0  0  0  0  0  0
    3.4641   -1.5000   -0.0000 C   0  0  0  0  0  0  0  0  0  0  0  0
    2.5981    1.0000   -0.0000 O   0  0  0  0  0  0  0  0  0  0  0  0
    1.7321   -0.5000   -0.0000 C   0  0  0  0  0  0  0  0  0  0  0  0
    4.3301   -2.0000   -0.0000 O   0  0  0  0  0  0  0  0  0  0  0  0
    2.5981   -2.0000   -0.0000 C   0  0  0  0  0  0  0  0  0  0  0  0
    1.7321   -1.5000   -0.0000 N   0  0  0  0  0  0  0  0  0  0  0  0
    0.8660   -0.0000   -0.0000 C   0  0  0  0  0  0  0  0  0  0  0  0
    2.5981   -3.0000   -0.0000 C   0  0  0  0  0  0  0  0  0  0  0  0
    0.0000   -0.5000   -0.0000 C   0  0  0  0  0  0  0  0  0  0  0  0
    3.4641   -3.5000   -0.0000 C   0  0  0  0  0  0  0  0  0  0  0  0
  1  2  1  0  0  0  0
  2  3  1  0  0  0  0
  2  4  1  0  0  0  0
  3  5  1  0  0  0  0
  3  6  1  0  0  0  0
  4  7  1  0  0  0  0
  4  8  1  0  0  0  0
  6  9  1  0  0  0  0
  6 10  1  0  0  0  0
  8 11  1  0  0  0  0
 10 12  1  0  0  0  0
 11 13  1  0  0  0  0
  8  9  1  0  0  0  0
M  END
>  <S/N>
141

>  <Compound ID>
C_154

>  <PubChem CID>
78168139

>  <Isomeric SMILES>
CCC1C(C(C(C(N1)CC)O)O)O

>  <IC50 (�M)>
10

>  <pIC50>
5

$$$$
C_155
Actelion Java MolfileCreator 1.0

 19 21  0  0  0  0  0  0  0  0999 V2000
    0.8660   -0.0000   -0.0000 O   0  0  0  0  0  0  0  0  0  0  0  0
    1.7321   -0.5000   -0.0000 C   0  0  0  0  0  0  0  0  0  0  0  0
    0.0000   -0.5000   -0.0000 C   0  0  0  0  0  0  0  0  0  0  0  0
    1.7321   -1.5000   -0.0000 C   0  0  0  0  0  0  0  0  0  0  0  0
    2.5981   -0.0000   -0.0000 C   0  0  0  0  0  0  0  0  0  0  0  0
    0.8660   -2.0000   -0.0000 O   0  0  0  0  0  0  0  0  0  0  0  0
    2.5981   -2.0000   -0.0000 C   0  0  0  0  0  0  0  0  0  0  0  0
    3.4641   -0.5000   -0.0000 C   0  0  0  0  0  0  0  0  0  0  0  0
    3.4641   -1.5000   -0.0000 C   0  0  0  0  0  0  0  0  0  0  0  0
    4.3301   -2.0000   -0.0000 C   0  0  0  0  0  0  0  0  0  0  0  0
    4.4347   -2.9945   -0.0000 N   0  0  0  0  0  0  0  0  0  0  0  0
    5.2437   -1.5933   -0.0000 N   0  0  0  0  0  0  0  0  0  0  0  0
    5.4128   -3.2024   -0.0000 C   0  0  0  0  0  0  0  0  0  0  0  0
    5.9128   -2.3364   -0.0000 C   0  0  0  0  0  0  0  0  0  0  0  0
    5.9128   -4.0685   -0.0000 C   0  0  0  0  0  0  0  0  0  0  0  0
    6.9128   -2.3364   -0.0000 C   0  0  0  0  0  0  0  0  0  0  0  0
    6.9128   -4.0685   -0.0000 C   0  0  0  0  0  0  0  0  0  0  0  0
    5.4128   -4.9345   -0.0000 C   0  0  0  0  0  0  0  0  0  0  0  0
    7.4128   -3.2024   -0.0000 C   0  0  0  0  0  0  0  0  0  0  0  0
  1  2  1  0  0  0  0
  1  3  1  0  0  0  0
  2  4  2  0  0  0  0
  2  5  1  0  0  0  0
  4  6  1  0  0  0  0
  4  7  1  0  0  0  0
  5  8  2  0  0  0  0
  7  9  2  0  0  0  0
  9 10  1  0  0  0  0
 10 11  2  0  0  0  0
 10 12  1  0  0  0  0
 11 13  1  0  0  0  0
 12 14  1  0  0  0  0
 13 15  2  0  0  0  0
 14 16  2  0  0  0  0
 15 17  1  0  0  0  0
 15 18  1  0  0  0  0
 16 19  1  0  0  0  0
  8  9  1  0  0  0  0
 13 14  1  0  0  0  0
 17 19  2  0  0  0  0
M  END
>  <S/N>
142

>  <Compound ID>
C_155

>  <PubChem CID>
78908128

>  <Isomeric SMILES>
CC1=C2C(=CC=C1)NC(=N2)C3=CC(=C(C=C3)OC)O

>  <IC50 (�M)>
5.3

>  <pIC50>
5.28

$$$$
C_156
Actelion Java MolfileCreator 1.0

 21 23  0  0  0  0  0  0  0  0999 V2000
    5.1962    1.5000   -0.0000 Cl  0  0  0  0  0  0  0  0  0  0  0  0
    4.3301    1.0000   -0.0000 C   0  0  0  0  0  0  0  0  0  0  0  0
    3.4641    1.5000   -0.0000 C   0  0  0  0  0  0  0  0  0  0  0  0
    4.3301    0.0000   -0.0000 C   0  0  0  0  0  0  0  0  0  0  0  0
    2.5981    1.0000   -0.0000 C   0  0  0  0  0  0  0  0  0  0  0  0
    3.4641   -0.5000   -0.0000 C   0  0  0  0  0  0  0  0  0  0  0  0
    2.5981   -0.0000   -0.0000 C   0  0  0  0  0  0  0  0  0  0  0  0
    1.7321   -0.5000   -0.0000 C   0  0  0  0  0  0  0  0  0  0  0  0
    1.7321   -1.5000   -0.0000 O   0  0  0  0  0  0  0  0  0  0  0  0
    0.8660   -0.0000   -0.0000 C   0  0  0  0  0  0  0  0  0  0  0  0
    0.0000   -0.5000   -0.0000 N   0  0  0  0  0  0  0  0  0  0  0  0
   -0.9135   -0.0933   -0.0000 N   0  0  0  0  0  0  0  0  0  0  0  0
   -0.1045   -1.4945   -0.0000 C   0  0  0  0  0  0  0  0  0  0  0  0
   -1.5827   -0.8364   -0.0000 N   0  0  0  0  0  0  0  0  0  0  0  0
   -1.0827   -1.7024   -0.0000 C   0  0  0  0  0  0  0  0  0  0  0  0
    0.5646   -2.2377   -0.0000 C   0  0  0  0  0  0  0  0  0  0  0  0
   -1.3917   -2.6535   -0.0000 C   0  0  0  0  0  0  0  0  0  0  0  0
    0.2556   -3.1887   -0.0000 C   0  0  0  0  0  0  0  0  0  0  0  0
   -0.7226   -3.3966   -0.0000 C   0  0  0  0  0  0  0  0  0  0  0  0
    0.9247   -3.9319   -0.0000 C   0  0  0  0  0  0  0  0  0  0  0  0
   -1.0316   -4.3477   -0.0000 C   0  0  0  0  0  0  0  0  0  0  0  0
  1  2  1  0  0  0  0
  2  3  2  0  0  0  0
  2  4  1  0  0  0  0
  3  5  1  0  0  0  0
  4  6  2  0  0  0  0
  5  7  2  0  0  0  0
  7  8  1  0  0  0  0
  8  9  2  0  0  0  0
  8 10  1  0  0  0  0
 10 11  1  0  0  0  0
 11 12  1  0  0  0  0
 11 13  1  0  0  0  0
 12 14  2  0  0  0  0
 13 15  2  0  0  0  0
 13 16  1  0  0  0  0
 15 17  1  0  0  0  0
 16 18  2  0  0  0  0
 17 19  2  0  0  0  0
 18 20  1  0  0  0  0
 19 21  1  0  0  0  0
  6  7  1  0  0  0  0
 14 15  1  0  0  0  0
 18 19  1  0  0  0  0
M  END
>  <S/N>
143

>  <Compound ID>
C_156

>  <PubChem CID>
84410102

>  <Isomeric SMILES>
CC1=CC2=C(C=C1C)N(N=N2)CC(=O)C3=CC=C(C=C3)Cl

>  <IC50 (�M)>
2.21

>  <pIC50>
5.66

$$$$
C_157
Actelion Java MolfileCreator 1.0

 20 22  0  0  0  0  0  0  0  0999 V2000
    2.5981    2.2500   -0.0000 O   0  0  0  0  0  0  0  0  0  0  0  0
    1.2990    1.5000   -0.0000 C   0  0  0  0  0  0  0  0  0  0  0  0
    0.0000    2.2500   -0.0000 C   0  0  0  0  0  0  0  0  0  0  0  0
    1.2990   -0.0000   -0.0000 C   0  0  0  0  0  0  0  0  0  0  0  0
   -1.2990    1.5000   -0.0000 C   0  0  0  0  0  0  0  0  0  0  0  0
    0.0000    3.7500   -0.0000 C   0  0  0  0  0  0  0  0  0  0  0  0
    0.0000   -0.7500   -0.0000 N   0  0  0  0  0  0  0  0  0  0  0  0
   -2.5981    2.2500   -0.0000 C   0  0  0  0  0  0  0  0  0  0  0  0
   -1.2990    4.5000   -0.0000 C   0  0  0  0  0  0  0  0  0  0  0  0
   -1.3703   -0.1399   -0.0000 N   0  0  0  0  0  0  0  0  0  0  0  0
   -0.1568   -2.2418   -0.0000 C   0  0  0  0  0  0  0  0  0  0  0  0
   -2.5981    3.7500   -0.0000 C   0  0  0  0  0  0  0  0  0  0  0  0
   -2.3740   -1.2546   -0.0000 N   0  0  0  0  0  0  0  0  0  0  0  0
   -1.6240   -2.5537   -0.0000 C   0  0  0  0  0  0  0  0  0  0  0  0
    0.8469   -3.3565   -0.0000 C   0  0  0  0  0  0  0  0  0  0  0  0
   -2.0875   -3.9802   -0.0000 C   0  0  0  0  0  0  0  0  0  0  0  0
    0.3834   -4.7831   -0.0000 C   0  0  0  0  0  0  0  0  0  0  0  0
   -1.0838   -5.0950   -0.0000 C   0  0  0  0  0  0  0  0  0  0  0  0
    1.3871   -5.8978   -0.0000 C   0  0  0  0  0  0  0  0  0  0  0  0
   -1.5474   -6.5215   -0.0000 C   0  0  0  0  0  0  0  0  0  0  0  0
  1  2  2  0  0  0  0
  2  3  1  0  0  0  0
  2  4  1  0  0  0  0
  3  5  2  0  0  0  0
  3  6  1  0  0  0  0
  4  7  1  0  0  0  0
  5  8  1  0  0  0  0
  6  9  2  0  0  0  0
  7 10  1  0  0  0  0
  7 11  1  0  0  0  0
  8 12  2  0  0  0  0
 10 13  2  0  0  0  0
 11 14  2  0  0  0  0
 11 15  1  0  0  0  0
 14 16  1  0  0  0  0
 15 17  2  0  0  0  0
 16 18  2  0  0  0  0
 17 19  1  0  0  0  0
 18 20  1  0  0  0  0
  9 12  1  0  0  0  0
 13 14  1  0  0  0  0
 17 18  1  0  0  0  0
M  END
>  <S/N>
144

>  <Compound ID>
C_157

>  <PubChem CID>
84410550

>  <Isomeric SMILES>
CC1=CC2=C(C=C1C)N(N=N2)CC(=O)C3=CC=CC=C3

>  <IC50 (�M)>
3.41

>  <pIC50>
5.47

$$$$
C_158
Actelion Java MolfileCreator 1.0

 17 18  0  0  1  0  0  0  0  0999 V2000
    4.4903   -2.4544   -0.0000 O   0  0  0  0  0  0  0  0  0  0  0  0
    4.8970   -1.5409   -0.0000 C   0  0  0  0  0  0  0  0  0  0  0  0
    5.8916   -1.4364   -0.0000 N   0  0  0  0  0  0  0  0  0  0  0  0
    4.3092   -0.7319   -0.0000 N   0  0  0  0  0  0  0  0  0  0  0  0
    6.2983   -0.5228   -0.0000 C   0  0  0  0  0  0  0  0  0  0  0  0
    4.7160    0.1817   -0.0000 C   0  0  0  0  0  0  0  0  0  0  0  0
    3.3147   -0.8364   -0.0000 C   0  0  0  0  0  0  0  0  0  0  0  0
    7.2928   -0.4183   -0.0000 N   0  0  0  0  0  0  0  0  0  0  0  0
    5.7105    0.2862   -0.0000 C   0  0  0  0  0  0  0  0  0  0  0  0
    2.6456   -0.0933   -0.0000 O   0  0  0  0  0  0  0  0  0  0  0  0
    2.8147   -1.7024   -0.0000 C   0  0  0  0  0  0  0  0  0  0  0  0
    1.7321   -0.5000   -0.0000 C   0  0  0  0  0  0  0  0  0  0  0  0
    3.2215   -2.6160   -0.0000 O   0  0  0  0  0  0  0  0  0  0  0  0
    1.8366   -1.4945   -0.0000 C   0  0  0  0  0  0  0  0  0  0  0  0
    0.8660   -0.0000   -0.0000 C   0  0  0  0  0  0  0  0  0  0  0  0
    1.0934   -2.1637   -0.0000 O   0  0  0  0  0  0  0  0  0  0  0  0
    0.0000   -0.5000   -0.0000 O   0  0  0  0  0  0  0  0  0  0  0  0
  1  2  2  0  0  0  0
  2  3  1  0  0  0  0
  2  4  1  0  0  0  0
  3  5  2  0  0  0  0
  4  6  1  0  0  0  0
  4  7  1  0  0  0  0
  5  8  1  0  0  0  0
  5  9  1  0  0  0  0
  7 10  1  0  0  0  0
  7 11  1  0  0  0  0
 10 12  1  0  0  0  0
 11 13  1  6  0  0  0
 11 14  1  0  0  0  0
 12 15  1  0  0  0  0
 14 16  1  6  0  0  0
 15 17  1  0  0  0  0
  6  9  2  0  0  0  0
 12 14  1  0  0  0  0
M  END
>  <S/N>
145

>  <Compound ID>
C_158

>  <PubChem CID>
89495334

>  <Isomeric SMILES>
C1=CN(C(=O)N=C1N)C2[C@@H]([C@@H](C(O2)CO)O)O

>  <IC50 (�M)>
2.5

>  <pIC50>
5.6

$$$$
C_159
Actelion Java MolfileCreator 1.0

 36 38  0  0  0  0  0  0  0  0999 V2000
    7.7942   -2.2500   -0.0000 O   0  0  0  0  0  0  0  0  0  0  0  0
    9.0933   -3.0000   -0.0000 C   0  0  0  0  0  0  0  0  0  0  0  0
    9.0933   -4.5000   -0.0000 C   0  0  0  0  0  0  0  0  0  0  0  0
   10.3923   -2.2500   -0.0000 C   0  0  0  0  0  0  0  0  0  0  0  0
    7.7942   -5.2500   -0.0000 C   0  0  0  0  0  0  0  0  0  0  0  0
   10.3923   -5.2500   -0.0000 C   0  0  0  0  0  0  0  0  0  0  0  0
   11.6913   -3.0000   -0.0000 C   0  0  0  0  0  0  0  0  0  0  0  0
   10.3923   -0.7500   -0.0000 C   0  0  0  0  0  0  0  0  0  0  0  0
    6.4952   -4.5000   -0.0000 O   0  0  0  0  0  0  0  0  0  0  0  0
    7.7942   -6.7500   -0.0000 C   0  0  0  0  0  0  0  0  0  0  0  0
   11.6913   -4.5000   -0.0000 O   0  0  0  0  0  0  0  0  0  0  0  0
   10.3923   -6.7500   -0.0000 C   0  0  0  0  0  0  0  0  0  0  0  0
   12.9904   -2.2500   -0.0000 C   0  0  0  0  0  0  0  0  0  0  0  0
   11.6913    0.0000   -0.0000 C   0  0  0  0  0  0  0  0  0  0  0  0
    9.0933   -0.0000   -0.0000 C   0  0  0  0  0  0  0  0  0  0  0  0
    9.0933   -7.5000   -0.0000 C   0  0  0  0  0  0  0  0  0  0  0  0
    6.4952   -7.5000   -0.0000 C   0  0  0  0  0  0  0  0  0  0  0  0
   12.9904   -0.7500   -0.0000 C   0  0  0  0  0  0  0  0  0  0  0  0
   11.6913    1.5000   -0.0000 O   0  0  0  0  0  0  0  0  0  0  0  0
    7.7942   -0.7500   -0.0000 C   0  0  0  0  0  0  0  0  0  0  0  0
    9.0933   -9.0000   -0.0000 O   0  0  0  0  0  0  0  0  0  0  0  0
    5.1962   -6.7500   -0.0000 C   0  0  0  0  0  0  0  0  0  0  0  0
   14.2894   -0.0000   -0.0000 O   0  0  0  0  0  0  0  0  0  0  0  0
   10.3923    2.2500   -0.0000 C   0  0  0  0  0  0  0  0  0  0  0  0
    6.4952   -0.0000   -0.0000 C   0  0  0  0  0  0  0  0  0  0  0  0
    3.8971   -7.5000   -0.0000 C   0  0  0  0  0  0  0  0  0  0  0  0
    5.1962   -0.7500   -0.0000 C   0  0  0  0  0  0  0  0  0  0  0  0
    6.4952    1.5000   -0.0000 C   0  0  0  0  0  0  0  0  0  0  0  0
    2.5981   -6.7500   -0.0000 C   0  0  0  0  0  0  0  0  0  0  0  0
    3.8971   -9.0000   -0.0000 C   0  0  0  0  0  0  0  0  0  0  0  0
    3.8971   -0.0000   -0.0000 C   0  0  0  0  0  0  0  0  0  0  0  0
    1.2990   -7.5000   -0.0000 O   0  0  0  0  0  0  0  0  0  0  0  0
    2.5981   -0.7500   -0.0000 C   0  0  0  0  0  0  0  0  0  0  0  0
    1.2990   -0.0000   -0.0000 C   0  0  0  0  0  0  0  0  0  0  0  0
    1.2990    1.5000   -0.0000 C   0  0  0  0  0  0  0  0  0  0  0  0
    0.0000   -0.7500   -0.0000 C   0  0  0  0  0  0  0  0  0  0  0  0
  1  2  2  0  0  0  0
  2  3  1  0  0  0  0
  2  4  1  0  0  0  0
  3  5  2  0  0  0  0
  3  6  1  0  0  0  0
  4  7  2  0  0  0  0
  4  8  1  0  0  0  0
  5  9  1  0  0  0  0
  5 10  1  0  0  0  0
  6 11  1  0  0  0  0
  6 12  2  0  0  0  0
  7 13  1  0  0  0  0
  8 14  2  0  0  0  0
  8 15  1  0  0  0  0
 10 16  2  0  0  0  0
 10 17  1  0  0  0  0
 13 18  2  0  0  0  0
 14 19  1  0  0  0  0
 15 20  1  0  0  0  0
 16 21  1  0  0  0  0
 17 22  1  0  0  0  0
 18 23  1  0  0  0  0
 19 24  1  0  0  0  0
 20 25  2  0  0  0  0
 22 26  2  0  0  0  0
 25 27  1  0  0  0  0
 25 28  1  0  0  0  0
 26 29  1  0  0  0  0
 26 30  1  0  0  0  0
 27 31  1  0  0  0  0
 29 32  1  0  0  0  0
 31 33  1  0  0  0  0
 33 34  2  0  0  0  0
 34 35  1  0  0  0  0
 34 36  1  0  0  0  0
  7 11  1  0  0  0  0
 12 16  1  0  0  0  0
 14 18  1  0  0  0  0
M  END
>  <S/N>
146

>  <Compound ID>
C_159

>  <PubChem CID>
101671063

>  <Isomeric SMILES>
CC(=CCC/C(=C/CC1=C(C(=CC2=C1C(=O)C3=C(O2)C=C(C(=C3O)C/C=C(\C)/CO)O)O)OC)/C)C

>  <IC50 (�M)>
28.7

>  <pIC50>
4.54

$$$$
C_160
Actelion Java MolfileCreator 1.0

 20 21  0  0  1  0  0  0  0  0999 V2000
    1.7321   -2.5000   -0.0000 O   0  0  0  0  0  0  0  0  0  0  0  0
    2.5981   -2.0000   -0.0000 C   0  0  0  0  0  0  0  0  0  0  0  0
    3.4641   -1.5000   -0.0000 C   0  0  0  0  0  0  0  0  0  0  0  0
    1.7321   -1.5000   -0.0000 C   0  0  0  0  0  0  0  0  0  0  0  0
    2.5981   -3.0000   -0.0000 C   0  0  0  0  0  0  0  0  0  0  0  0
    4.3301   -2.0000   -0.0000 O   0  0  0  0  0  0  0  0  0  0  0  0
    3.4641   -0.5000   -0.0000 C   0  0  0  0  0  0  0  0  0  0  0  0
    1.7321   -0.5000   -0.0000 C   0  0  0  0  0  0  0  0  0  0  0  0
    1.7321   -3.5000   -0.0000 O   0  0  0  0  0  0  0  0  0  0  0  0
    4.3301   -0.0000   -0.0000 O   0  0  0  0  0  0  0  0  0  0  0  0
    2.5981    0.0000   -0.0000 C   0  0  0  0  0  0  0  0  0  0  0  0
    0.8660   -0.0000   -0.0000 N   0  0  0  0  0  0  0  0  0  0  0  0
    2.5981    1.0000   -0.0000 O   0  0  0  0  0  0  0  0  0  0  0  0
    0.0000   -0.5000   -0.0000 C   0  0  0  0  0  0  0  0  0  0  0  0
   -0.8660    0.0000   -0.0000 C   0  0  0  0  0  0  0  0  0  0  0  0
   -0.0000   -1.5000   -0.0000 C   0  0  0  0  0  0  0  0  0  0  0  0
   -0.8660    1.0000   -0.0000 O   0  0  0  0  0  0  0  0  0  0  0  0
   -1.7321   -0.5000   -0.0000 C   0  0  0  0  0  0  0  0  0  0  0  0
   -0.8660   -2.0000   -0.0000 C   0  0  0  0  0  0  0  0  0  0  0  0
   -1.7321   -1.5000   -0.0000 C   0  0  0  0  0  0  0  0  0  0  0  0
  2  1  1  6  0  0  0
  2  3  1  0  0  0  0
  2  4  1  0  0  0  0
  2  5  1  0  0  0  0
  3  6  1  6  0  0  0
  3  7  1  0  0  0  0
  4  8  1  0  0  0  0
  5  9  1  0  0  0  0
  7 10  1  1  0  0  0
  7 11  1  0  0  0  0
  8 12  1  6  0  0  0
 11 13  1  6  0  0  0
 14 12  1  6  0  0  0
 14 15  1  0  0  0  0
 14 16  1  0  0  0  0
 15 17  1  1  0  0  0
 15 18  1  0  0  0  0
 16 19  1  0  0  0  0
 18 20  1  0  0  0  0
  8 11  1  0  0  0  0
 19 20  1  0  0  0  0
M  END
>  <S/N>
147

>  <Compound ID>
C_160

>  <PubChem CID>
101872894

>  <Isomeric SMILES>
C1CC[C@H]([C@@H](C1)N[C@H]2C[C@@]([C@H]([C@@H]([C@H]2O)O)O)(CO)O)O

>  <IC50 (�M)>
0.01

>  <pIC50>
8.21

$$$$
C_161
Actelion Java MolfileCreator 1.0

 32 34  0  0  1  0  0  0  0  0999 V2000
    4.4462   -2.0490   -0.0000 F   0  0  0  0  0  0  0  0  0  0  0  0
    5.1962   -0.7500   -0.0000 C   0  0  0  0  0  0  0  0  0  0  0  0
    5.9462   -2.0490   -0.0000 F   0  0  0  0  0  0  0  0  0  0  0  0
    6.4952   -0.0000   -0.0000 C   0  0  0  0  0  0  0  0  0  0  0  0
    3.8971   -0.0000   -0.0000 C   0  0  0  0  0  0  0  0  0  0  0  0
    7.7942   -0.7500   -0.0000 O   0  0  0  0  0  0  0  0  0  0  0  0
    2.5981   -0.7500   -0.0000 C   0  0  0  0  0  0  0  0  0  0  0  0
    9.0933   -0.0000   -0.0000 C   0  0  0  0  0  0  0  0  0  0  0  0
    1.2990   -0.0000   -0.0000 C   0  0  0  0  0  0  0  0  0  0  0  0
   10.3923   -0.7500   -0.0000 C   0  0  0  0  0  0  0  0  0  0  0  0
    0.0000   -0.7500   -0.0000 N   0  0  0  0  0  0  0  0  0  0  0  0
   10.3923   -2.2500   -0.0000 C   0  0  0  0  0  0  0  0  0  0  0  0
   11.6914   -0.0000   -0.0000 C   0  0  0  0  0  0  0  0  0  0  0  0
   -1.2990    0.0000   -0.0000 C   0  0  0  0  0  0  0  0  0  0  0  0
   -0.0000   -2.2500   -0.0000 C   0  0  0  0  0  0  0  0  0  0  0  0
   11.6914   -3.0000   -0.0000 C   0  0  0  0  0  0  0  0  0  0  0  0
   12.9904   -0.7500   -0.0000 C   0  0  0  0  0  0  0  0  0  0  0  0
   -2.5981   -0.7500   -0.0000 C   0  0  0  0  0  0  0  0  0  0  0  0
   -1.2990    1.5000   -0.0000 C   0  0  0  0  0  0  0  0  0  0  0  0
   -1.2990   -3.0000   -0.0000 C   0  0  0  0  0  0  0  0  0  0  0  0
   12.9904   -2.2500   -0.0000 C   0  0  0  0  0  0  0  0  0  0  0  0
   -3.8971    0.0000   -0.0000 O   0  0  0  0  0  0  0  0  0  0  0  0
   -2.5981   -2.2500   -0.0000 C   0  0  0  0  0  0  0  0  0  0  0  0
   -2.5981    2.2500   -0.0000 O   0  0  0  0  0  0  0  0  0  0  0  0
   -1.2990   -4.5000   -0.0000 O   0  0  0  0  0  0  0  0  0  0  0  0
   14.2894   -3.0000   -0.0000 C   0  0  0  0  0  0  0  0  0  0  0  0
   -3.8971   -3.0000   -0.0000 O   0  0  0  0  0  0  0  0  0  0  0  0
   14.2894   -4.5000   -0.0000 C   0  0  0  0  0  0  0  0  0  0  0  0
   15.5885   -2.2500   -0.0000 C   0  0  0  0  0  0  0  0  0  0  0  0
   15.5885   -5.2500   -0.0000 C   0  0  0  0  0  0  0  0  0  0  0  0
   16.8875   -3.0000   -0.0000 C   0  0  0  0  0  0  0  0  0  0  0  0
   16.8875   -4.5000   -0.0000 C   0  0  0  0  0  0  0  0  0  0  0  0
  1  2  1  0  0  0  0
  2  3  1  0  0  0  0
  2  4  1  0  0  0  0
  2  5  1  0  0  0  0
  4  6  1  0  0  0  0
  5  7  1  0  0  0  0
  6  8  1  0  0  0  0
  7  9  1  0  0  0  0
  8 10  1  0  0  0  0
  9 11  1  0  0  0  0
 10 12  2  0  0  0  0
 10 13  1  0  0  0  0
 11 14  1  0  0  0  0
 11 15  1  0  0  0  0
 12 16  1  0  0  0  0
 13 17  2  0  0  0  0
 14 18  1  0  0  0  0
 14 19  1  1  0  0  0
 15 20  1  0  0  0  0
 16 21  2  0  0  0  0
 18 22  1  6  0  0  0
 18 23  1  0  0  0  0
 19 24  1  0  0  0  0
 20 25  1  6  0  0  0
 21 26  1  0  0  0  0
 23 27  1  1  0  0  0
 26 28  2  0  0  0  0
 26 29  1  0  0  0  0
 28 30  1  0  0  0  0
 29 31  2  0  0  0  0
 30 32  2  0  0  0  0
 17 21  1  0  0  0  0
 20 23  1  0  0  0  0
 31 32  1  0  0  0  0
M  END
>  <S/N>
148

>  <Compound ID>
C_161

>  <PubChem CID>
101882899

>  <Isomeric SMILES>
C1[C@@H]([C@H]([C@@H]([C@H](N1CCCC(COCC2=CC=C(C=C2)C3=CC=CC=C3)(F)F)CO)O)O)O

>  <IC50 (�M)>
9

>  <pIC50>
5.05

$$$$
C_162
Actelion Java MolfileCreator 1.0

 31 33  0  0  0  0  0  0  0  0999 V2000
    1.7321   -1.5000   -0.0000 O   0  0  0  0  0  0  0  0  0  0  0  0
    2.5981   -2.0000   -0.0000 C   0  0  0  0  0  0  0  0  0  0  0  0
    2.5981   -3.0000   -0.0000 C   0  0  0  0  0  0  0  0  0  0  0  0
    3.4641   -1.5000   -0.0000 C   0  0  0  0  0  0  0  0  0  0  0  0
    1.7321   -3.5000   -0.0000 C   0  0  0  0  0  0  0  0  0  0  0  0
    3.4641   -3.5000   -0.0000 C   0  0  0  0  0  0  0  0  0  0  0  0
    4.3301   -2.0000   -0.0000 C   0  0  0  0  0  0  0  0  0  0  0  0
    3.4641   -0.5000   -0.0000 C   0  0  0  0  0  0  0  0  0  0  0  0
    0.8660   -3.0000   -0.0000 O   0  0  0  0  0  0  0  0  0  0  0  0
    1.7321   -4.5000   -0.0000 C   0  0  0  0  0  0  0  0  0  0  0  0
    4.3301   -3.0000   -0.0000 O   0  0  0  0  0  0  0  0  0  0  0  0
    3.4641   -4.5000   -0.0000 C   0  0  0  0  0  0  0  0  0  0  0  0
    5.1962   -1.5000   -0.0000 C   0  0  0  0  0  0  0  0  0  0  0  0
    4.3301    0.0000   -0.0000 C   0  0  0  0  0  0  0  0  0  0  0  0
    2.5981   -0.0000   -0.0000 C   0  0  0  0  0  0  0  0  0  0  0  0
    2.5981   -5.0000   -0.0000 C   0  0  0  0  0  0  0  0  0  0  0  0
    0.8660   -5.0000   -0.0000 C   0  0  0  0  0  0  0  0  0  0  0  0
    5.1962   -0.5000   -0.0000 C   0  0  0  0  0  0  0  0  0  0  0  0
    4.3301    1.0000   -0.0000 O   0  0  0  0  0  0  0  0  0  0  0  0
    1.7321   -0.5000   -0.0000 C   0  0  0  0  0  0  0  0  0  0  0  0
    2.5981   -6.0000   -0.0000 O   0  0  0  0  0  0  0  0  0  0  0  0
    0.0000   -4.5000   -0.0000 C   0  0  0  0  0  0  0  0  0  0  0  0
    6.0622    0.0000   -0.0000 O   0  0  0  0  0  0  0  0  0  0  0  0
    3.4641    1.5000   -0.0000 C   0  0  0  0  0  0  0  0  0  0  0  0
    0.8660   -0.0000   -0.0000 C   0  0  0  0  0  0  0  0  0  0  0  0
   -0.8660   -5.0000   -0.0000 C   0  0  0  0  0  0  0  0  0  0  0  0
    0.8660    1.0000   -0.0000 C   0  0  0  0  0  0  0  0  0  0  0  0
    0.0000   -0.5000   -0.0000 C   0  0  0  0  0  0  0  0  0  0  0  0
   -0.3660   -5.8660   -0.0000 O   0  0  0  0  0  0  0  0  0  0  0  0
   -1.7321   -5.5000   -0.0000 C   0  0  0  0  0  0  0  0  0  0  0  0
   -1.3660   -4.1340   -0.0000 C   0  0  0  0  0  0  0  0  0  0  0  0
  1  2  2  0  0  0  0
  2  3  1  0  0  0  0
  2  4  1  0  0  0  0
  3  5  2  0  0  0  0
  3  6  1  0  0  0  0
  4  7  2  0  0  0  0
  4  8  1  0  0  0  0
  5  9  1  0  0  0  0
  5 10  1  0  0  0  0
  6 11  1  0  0  0  0
  6 12  2  0  0  0  0
  7 13  1  0  0  0  0
  8 14  2  0  0  0  0
  8 15  1  0  0  0  0
 10 16  2  0  0  0  0
 10 17  1  0  0  0  0
 13 18  2  0  0  0  0
 14 19  1  0  0  0  0
 15 20  1  0  0  0  0
 16 21  1  0  0  0  0
 17 22  1  0  0  0  0
 18 23  1  0  0  0  0
 19 24  1  0  0  0  0
 20 25  2  0  0  0  0
 22 26  1  0  0  0  0
 25 27  1  0  0  0  0
 25 28  1  0  0  0  0
 26 29  1  0  0  0  0
 26 30  1  0  0  0  0
 26 31  1  0  0  0  0
  7 11  1  0  0  0  0
 12 16  1  0  0  0  0
 14 18  1  0  0  0  0
M  END
>  <S/N>
149

>  <Compound ID>
C_162

>  <PubChem CID>
102004659

>  <Isomeric SMILES>
CC(=CCC1=C(C(=CC2=C1C(=O)C3=C(O2)C=C(C(=C3O)CCC(C)(C)O)O)O)OC)C

>  <IC50 (�M)>
30.7

>  <pIC50>
4.51

$$$$
C_163
Actelion Java MolfileCreator 1.0

 30 34  0  0  1  0  0  0  0  0999 V2000
    0.8660   -2.0000   -0.0000 O   0  0  0  0  0  0  0  0  0  0  0  0
    1.7321   -1.5000   -0.0000 C   0  0  0  0  0  0  0  0  0  0  0  0
    2.5981   -2.0000   -0.0000 C   0  0  0  0  0  0  0  0  0  0  0  0
    1.7321   -0.5000   -0.0000 C   0  0  0  0  0  0  0  0  0  0  0  0
    3.4641   -1.5000   -0.0000 C   0  0  0  0  0  0  0  0  0  0  0  0
    2.5981   -3.0000   -0.0000 C   0  0  0  0  0  0  0  0  0  0  0  0
    0.8660   -0.0000   -0.0000 C   0  0  0  0  0  0  0  0  0  0  0  0
    4.3301   -2.0000   -0.0000 C   0  0  0  0  0  0  0  0  0  0  0  0
    3.4641   -3.5000   -0.0000 C   0  0  0  0  0  0  0  0  0  0  0  0
    0.8660    1.0000   -0.0000 C   0  0  0  0  0  0  0  0  0  0  0  0
    0.0000   -0.5000   -0.0000 C   0  0  0  0  0  0  0  0  0  0  0  0
    4.3301   -3.0000   -0.0000 C   0  0  0  0  0  0  0  0  0  0  0  0
    5.1962   -1.5000   -0.0000 C   0  0  0  0  0  0  0  0  0  0  0  0
    1.7321    1.5000   -0.0000 C   0  0  0  0  0  0  0  0  0  0  0  0
    0.0000    1.5000   -0.0000 C   0  0  0  0  0  0  0  0  0  0  0  0
   -0.9135   -0.0933   -0.0000 C   0  0  0  0  0  0  0  0  0  0  0  0
   -0.1045   -1.4945   -0.0000 C   0  0  0  0  0  0  0  0  0  0  0  0
    5.1962   -3.5000   -0.0000 C   0  0  0  0  0  0  0  0  0  0  0  0
    6.0622   -2.0000   -0.0000 C   0  0  0  0  0  0  0  0  0  0  0  0
    1.7321    2.5000   -0.0000 C   0  0  0  0  0  0  0  0  0  0  0  0
    0.0000    2.5000   -0.0000 C   0  0  0  0  0  0  0  0  0  0  0  0
   -1.5827   -0.8364   -0.0000 C   0  0  0  0  0  0  0  0  0  0  0  0
   -1.2226    0.8578   -0.0000 C   0  0  0  0  0  0  0  0  0  0  0  0
   -1.0827   -1.7024   -0.0000 N   0  0  0  0  0  0  0  0  0  0  0  0
    6.0622   -3.0000   -0.0000 C   0  0  0  0  0  0  0  0  0  0  0  0
    0.8660    3.0000   -0.0000 C   0  0  0  0  0  0  0  0  0  0  0  0
   -2.5608   -0.6285   -0.0000 C   0  0  0  0  0  0  0  0  0  0  0  0
   -2.2007    1.0657   -0.0000 C   0  0  0  0  0  0  0  0  0  0  0  0
    0.8660    4.0000   -0.0000 C   0  0  0  0  0  0  0  0  0  0  0  0
   -2.8698    0.3226   -0.0000 C   0  0  0  0  0  0  0  0  0  0  0  0
  1  2  2  0  0  0  0
  2  3  1  0  0  0  0
  2  4  1  0  0  0  0
  3  5  2  0  0  0  0
  3  6  1  0  0  0  0
  7  4  1  6  0  0  0
  5  8  1  0  0  0  0
  6  9  2  0  0  0  0
  7 10  1  0  0  0  0
  7 11  1  0  0  0  0
  8 12  2  0  0  0  0
  8 13  1  0  0  0  0
 10 14  2  0  0  0  0
 10 15  1  0  0  0  0
 11 16  1  0  0  0  0
 11 17  2  0  0  0  0
 12 18  1  0  0  0  0
 13 19  2  0  0  0  0
 14 20  1  0  0  0  0
 15 21  2  0  0  0  0
 16 22  2  0  0  0  0
 16 23  1  0  0  0  0
 17 24  1  0  0  0  0
 18 25  2  0  0  0  0
 20 26  2  0  0  0  0
 22 27  1  0  0  0  0
 23 28  2  0  0  0  0
 26 29  1  0  0  0  0
 27 30  2  0  0  0  0
  9 12  1  0  0  0  0
 19 25  1  0  0  0  0
 21 26  1  0  0  0  0
 22 24  1  0  0  0  0
 28 30  1  0  0  0  0
M  END
>  <S/N>
150

>  <Compound ID>
C_163

>  <PubChem CID>
102432416

>  <Isomeric SMILES>
CC1=CC=C(C=C1)[C@H](CC(=O)C2=CC3=CC=CC=C3C=C2)C4=CNC5=CC=CC=C54

>  <IC50 (�M)>
4.3

>  <pIC50>
5.37

$$$$
C_164
Actelion Java MolfileCreator 1.0

 29 33  0  0  1  0  0  0  0  0999 V2000
    0.8660   -2.0000   -0.0000 O   0  0  0  0  0  0  0  0  0  0  0  0
    1.7321   -1.5000   -0.0000 C   0  0  0  0  0  0  0  0  0  0  0  0
    2.5981   -2.0000   -0.0000 C   0  0  0  0  0  0  0  0  0  0  0  0
    1.7321   -0.5000   -0.0000 C   0  0  0  0  0  0  0  0  0  0  0  0
    3.4641   -1.5000   -0.0000 C   0  0  0  0  0  0  0  0  0  0  0  0
    2.5981   -3.0000   -0.0000 C   0  0  0  0  0  0  0  0  0  0  0  0
    0.8660   -0.0000   -0.0000 C   0  0  0  0  0  0  0  0  0  0  0  0
    4.3301   -2.0000   -0.0000 C   0  0  0  0  0  0  0  0  0  0  0  0
    3.4641   -3.5000   -0.0000 C   0  0  0  0  0  0  0  0  0  0  0  0
    0.8660    1.0000   -0.0000 C   0  0  0  0  0  0  0  0  0  0  0  0
    0.0000   -0.5000   -0.0000 C   0  0  0  0  0  0  0  0  0  0  0  0
    4.3301   -3.0000   -0.0000 C   0  0  0  0  0  0  0  0  0  0  0  0
    5.1962   -1.5000   -0.0000 C   0  0  0  0  0  0  0  0  0  0  0  0
    1.7321    1.5000   -0.0000 C   0  0  0  0  0  0  0  0  0  0  0  0
    0.0000    1.5000   -0.0000 C   0  0  0  0  0  0  0  0  0  0  0  0
   -0.9135   -0.0933   -0.0000 C   0  0  0  0  0  0  0  0  0  0  0  0
   -0.1045   -1.4945   -0.0000 C   0  0  0  0  0  0  0  0  0  0  0  0
    5.1962   -3.5000   -0.0000 C   0  0  0  0  0  0  0  0  0  0  0  0
    6.0622   -2.0000   -0.0000 C   0  0  0  0  0  0  0  0  0  0  0  0
    1.7321    2.5000   -0.0000 C   0  0  0  0  0  0  0  0  0  0  0  0
    0.0000    2.5000   -0.0000 C   0  0  0  0  0  0  0  0  0  0  0  0
   -1.5827   -0.8364   -0.0000 C   0  0  0  0  0  0  0  0  0  0  0  0
   -1.2226    0.8578   -0.0000 C   0  0  0  0  0  0  0  0  0  0  0  0
   -1.0827   -1.7024   -0.0000 N   0  0  0  0  0  0  0  0  0  0  0  0
    6.0622   -3.0000   -0.0000 C   0  0  0  0  0  0  0  0  0  0  0  0
    0.8660    3.0000   -0.0000 C   0  0  0  0  0  0  0  0  0  0  0  0
   -2.5608   -0.6285   -0.0000 C   0  0  0  0  0  0  0  0  0  0  0  0
   -2.2007    1.0657   -0.0000 C   0  0  0  0  0  0  0  0  0  0  0  0
   -2.8698    0.3226   -0.0000 C   0  0  0  0  0  0  0  0  0  0  0  0
  1  2  2  0  0  0  0
  2  3  1  0  0  0  0
  2  4  1  0  0  0  0
  3  5  2  0  0  0  0
  3  6  1  0  0  0  0
  7  4  1  6  0  0  0
  5  8  1  0  0  0  0
  6  9  2  0  0  0  0
  7 10  1  0  0  0  0
  7 11  1  0  0  0  0
  8 12  2  0  0  0  0
  8 13  1  0  0  0  0
 10 14  2  0  0  0  0
 10 15  1  0  0  0  0
 11 16  1  0  0  0  0
 11 17  2  0  0  0  0
 12 18  1  0  0  0  0
 13 19  2  0  0  0  0
 14 20  1  0  0  0  0
 15 21  2  0  0  0  0
 16 22  2  0  0  0  0
 16 23  1  0  0  0  0
 17 24  1  0  0  0  0
 18 25  2  0  0  0  0
 20 26  2  0  0  0  0
 22 27  1  0  0  0  0
 23 28  2  0  0  0  0
 27 29  2  0  0  0  0
  9 12  1  0  0  0  0
 19 25  1  0  0  0  0
 21 26  1  0  0  0  0
 22 24  1  0  0  0  0
 28 29  1  0  0  0  0
M  END
>  <S/N>
151

>  <Compound ID>
C_164

>  <PubChem CID>
102432417

>  <Isomeric SMILES>
C1=CC=C(C=C1)[C@H](CC(=O)C2=CC3=CC=CC=C3C=C2)C4=CNC5=CC=CC=C54

>  <IC50 (�M)>
4.3

>  <pIC50>
5.37

$$$$
C_165
Actelion Java MolfileCreator 1.0

 29 31  0  0  0  0  0  0  0  0999 V2000
   10.3923   -1.5000   -0.0000 O   0  0  0  0  0  0  0  0  0  0  0  0
   10.3923   -0.5000   -0.0000 C   0  0  0  0  0  0  0  0  0  0  0  0
   11.2583    0.0000   -0.0000 C   0  0  0  0  0  0  0  0  0  0  0  0
    9.5263    0.0000   -0.0000 C   0  0  0  0  0  0  0  0  0  0  0  0
   11.2583    1.0000   -0.0000 C   0  0  0  0  0  0  0  0  0  0  0  0
   12.1244   -0.5000   -0.0000 C   0  0  0  0  0  0  0  0  0  0  0  0
    9.5263    1.0000   -0.0000 C   0  0  0  0  0  0  0  0  0  0  0  0
    8.6603   -0.5000   -0.0000 C   0  0  0  0  0  0  0  0  0  0  0  0
   10.3923    1.5000   -0.0000 O   0  0  0  0  0  0  0  0  0  0  0  0
   12.1244    1.5000   -0.0000 C   0  0  0  0  0  0  0  0  0  0  0  0
   12.1244   -1.5000   -0.0000 O   0  0  0  0  0  0  0  0  0  0  0  0
   12.9904   -0.0000   -0.0000 C   0  0  0  0  0  0  0  0  0  0  0  0
    8.6603    1.5000   -0.0000 C   0  0  0  0  0  0  0  0  0  0  0  0
    7.7942   -0.0000   -0.0000 C   0  0  0  0  0  0  0  0  0  0  0  0
   12.9904    1.0000   -0.0000 C   0  0  0  0  0  0  0  0  0  0  0  0
    7.7942    1.0000   -0.0000 C   0  0  0  0  0  0  0  0  0  0  0  0
    6.9282   -0.5000   -0.0000 O   0  0  0  0  0  0  0  0  0  0  0  0
   13.8564    1.5000   -0.0000 O   0  0  0  0  0  0  0  0  0  0  0  0
    6.0622   -0.0000   -0.0000 C   0  0  0  0  0  0  0  0  0  0  0  0
    5.1962   -0.5000   -0.0000 C   0  0  0  0  0  0  0  0  0  0  0  0
    4.3301   -0.0000   -0.0000 C   0  0  0  0  0  0  0  0  0  0  0  0
    3.4641   -0.5000   -0.0000 C   0  0  0  0  0  0  0  0  0  0  0  0
    4.3301    1.0000   -0.0000 C   0  0  0  0  0  0  0  0  0  0  0  0
    2.5981   -0.0000   -0.0000 C   0  0  0  0  0  0  0  0  0  0  0  0
    1.7321   -0.5000   -0.0000 C   0  0  0  0  0  0  0  0  0  0  0  0
    1.7321   -1.5000   -0.0000 O   0  0  0  0  0  0  0  0  0  0  0  0
    0.8660   -0.0000   -0.0000 C   0  0  0  0  0  0  0  0  0  0  0  0
    0.8660    1.0000   -0.0000 C   0  0  0  0  0  0  0  0  0  0  0  0
    0.0000   -0.5000   -0.0000 C   0  0  0  0  0  0  0  0  0  0  0  0
  1  2  2  0  0  0  0
  2  3  1  0  0  0  0
  2  4  1  0  0  0  0
  3  5  2  0  0  0  0
  3  6  1  0  0  0  0
  4  7  2  0  0  0  0
  4  8  1  0  0  0  0
  5  9  1  0  0  0  0
  5 10  1  0  0  0  0
  6 11  1  0  0  0  0
  6 12  2  0  0  0  0
  7 13  1  0  0  0  0
  8 14  2  0  0  0  0
 10 15  2  0  0  0  0
 13 16  2  0  0  0  0
 14 17  1  0  0  0  0
 15 18  1  0  0  0  0
 17 19  1  0  0  0  0
 19 20  1  0  0  0  0
 20 21  2  0  0  0  0
 21 22  1  0  0  0  0
 21 23  1  0  0  0  0
 22 24  1  0  0  0  0
 24 25  1  0  0  0  0
 25 26  1  6  0  0  0
 25 27  1  0  0  0  0
 27 28  2  0  0  0  0
 27 29  1  0  0  0  0
  7  9  1  0  0  0  0
 12 15  1  0  0  0  0
 14 16  1  0  0  0  0
M  END
>  <S/N>
152

>  <Compound ID>
C_165

>  <PubChem CID>
102519726

>  <Isomeric SMILES>
CC(=C)C(CC/C(=C/COC1=CC2=C(C=C1)OC3=CC(=CC(=C3C2=O)O)O)/C)O

>  <IC50 (�M)>
13.7

>  <pIC50>
4.86

$$$$
C_166
Actelion Java MolfileCreator 1.0

 34 36  0  0  1  0  0  0  0  0999 V2000
    8.7942   -3.0000   -0.0000 F   0  0  0  0  0  0  0  0  0  0  0  0
    7.7942   -3.0000   -0.0000 C   0  0  0  0  0  0  0  0  0  0  0  0
    7.7942   -4.0000   -0.0000 F   0  0  0  0  0  0  0  0  0  0  0  0
    6.7942   -3.0000   -0.0000 F   0  0  0  0  0  0  0  0  0  0  0  0
    7.7942   -2.0000   -0.0000 C   0  0  0  0  0  0  0  0  0  0  0  0
    8.6603   -1.5000   -0.0000 C   0  0  0  0  0  0  0  0  0  0  0  0
    6.9282   -1.5000   -0.0000 C   0  0  0  0  0  0  0  0  0  0  0  0
    9.5263   -2.0000   -0.0000 C   0  0  0  0  0  0  0  0  0  0  0  0
    8.6603   -0.5000   -0.0000 C   0  0  0  0  0  0  0  0  0  0  0  0
    6.9282   -0.5000   -0.0000 C   0  0  0  0  0  0  0  0  0  0  0  0
    9.5263   -3.0000   -0.0000 C   0  0  0  0  0  0  0  0  0  0  0  0
   10.3923   -1.5000   -0.0000 C   0  0  0  0  0  0  0  0  0  0  0  0
    7.7942   -0.0000   -0.0000 C   0  0  0  0  0  0  0  0  0  0  0  0
    6.0622   -0.0000   -0.0000 C   0  0  0  0  0  0  0  0  0  0  0  0
   10.3923   -3.5000   -0.0000 C   0  0  0  0  0  0  0  0  0  0  0  0
   11.2583   -2.0000   -0.0000 C   0  0  0  0  0  0  0  0  0  0  0  0
    5.1962   -0.5000   -0.0000 O   0  0  0  0  0  0  0  0  0  0  0  0
   11.2583   -3.0000   -0.0000 C   0  0  0  0  0  0  0  0  0  0  0  0
    4.3301   -0.0000   -0.0000 C   0  0  0  0  0  0  0  0  0  0  0  0
    3.4641   -0.5000   -0.0000 C   0  0  0  0  0  0  0  0  0  0  0  0
    2.5981   -0.0000   -0.0000 C   0  0  0  0  0  0  0  0  0  0  0  0
    1.7321   -0.5000   -0.0000 C   0  0  0  0  0  0  0  0  0  0  0  0
    0.8660   -0.0000   -0.0000 C   0  0  0  0  0  0  0  0  0  0  0  0
    0.0000   -0.5000   -0.0000 N   0  0  0  0  0  0  0  0  0  0  0  0
   -0.8660    0.0000   -0.0000 C   0  0  0  0  0  0  0  0  0  0  0  0
   -0.0000   -1.5000   -0.0000 C   0  0  0  0  0  0  0  0  0  0  0  0
   -1.7321   -0.5000   -0.0000 C   0  0  0  0  0  0  0  0  0  0  0  0
   -0.8660    1.0000   -0.0000 C   0  0  0  0  0  0  0  0  0  0  0  0
   -0.8660   -2.0000   -0.0000 C   0  0  0  0  0  0  0  0  0  0  0  0
   -2.5981    0.0000   -0.0000 O   0  0  0  0  0  0  0  0  0  0  0  0
   -1.7321   -1.5000   -0.0000 C   0  0  0  0  0  0  0  0  0  0  0  0
   -1.7321    1.5000   -0.0000 O   0  0  0  0  0  0  0  0  0  0  0  0
   -0.8660   -3.0000   -0.0000 O   0  0  0  0  0  0  0  0  0  0  0  0
   -2.5981   -2.0000   -0.0000 O   0  0  0  0  0  0  0  0  0  0  0  0
  1  2  1  0  0  0  0
  2  3  1  0  0  0  0
  2  4  1  0  0  0  0
  2  5  1  0  0  0  0
  5  6  2  0  0  0  0
  5  7  1  0  0  0  0
  6  8  1  0  0  0  0
  6  9  1  0  0  0  0
  7 10  2  0  0  0  0
  8 11  2  0  0  0  0
  8 12  1  0  0  0  0
  9 13  2  0  0  0  0
 10 14  1  0  0  0  0
 11 15  1  0  0  0  0
 12 16  2  0  0  0  0
 14 17  1  0  0  0  0
 15 18  2  0  0  0  0
 17 19  1  0  0  0  0
 19 20  1  0  0  0  0
 20 21  1  0  0  0  0
 21 22  1  0  0  0  0
 22 23  1  0  0  0  0
 23 24  1  0  0  0  0
 24 25  1  0  0  0  0
 24 26  1  0  0  0  0
 25 27  1  0  0  0  0
 25 28  1  1  0  0  0
 26 29  1  0  0  0  0
 27 30  1  6  0  0  0
 27 31  1  0  0  0  0
 28 32  1  0  0  0  0
 29 33  1  6  0  0  0
 31 34  1  1  0  0  0
 10 13  1  0  0  0  0
 16 18  1  0  0  0  0
 29 31  1  0  0  0  0
M  END
>  <S/N>
153

>  <Compound ID>
C_166

>  <PubChem CID>
118411068

>  <Isomeric SMILES>
C1[C@@H]([C@H]([C@@H]([C@H](N1CCCCCOCC2=CC(=C(C=C2)C3=CC=CC=C3)C(F)(F)F)CO)O)O)O

>  <IC50 (�M)>
7

>  <pIC50>
5.15

$$$$
C_167
Actelion Java MolfileCreator 1.0

 34 36  0  0  1  0  0  0  0  0999 V2000
    6.7942    1.0000   -0.0000 F   0  0  0  0  0  0  0  0  0  0  0  0
    7.7942    1.0000   -0.0000 C   0  0  0  0  0  0  0  0  0  0  0  0
    7.7942    2.0000   -0.0000 F   0  0  0  0  0  0  0  0  0  0  0  0
    8.7942    1.0000   -0.0000 F   0  0  0  0  0  0  0  0  0  0  0  0
    7.7942    0.0000   -0.0000 C   0  0  0  0  0  0  0  0  0  0  0  0
    6.9282   -0.5000   -0.0000 C   0  0  0  0  0  0  0  0  0  0  0  0
    8.6603   -0.5000   -0.0000 C   0  0  0  0  0  0  0  0  0  0  0  0
    6.9282   -1.5000   -0.0000 C   0  0  0  0  0  0  0  0  0  0  0  0
    6.0622   -0.0000   -0.0000 C   0  0  0  0  0  0  0  0  0  0  0  0
    8.6603   -1.5000   -0.0000 C   0  0  0  0  0  0  0  0  0  0  0  0
    7.7942   -2.0000   -0.0000 C   0  0  0  0  0  0  0  0  0  0  0  0
    5.1962   -0.5000   -0.0000 O   0  0  0  0  0  0  0  0  0  0  0  0
    9.5263   -2.0000   -0.0000 C   0  0  0  0  0  0  0  0  0  0  0  0
    4.3301   -0.0000   -0.0000 C   0  0  0  0  0  0  0  0  0  0  0  0
    9.5263   -3.0000   -0.0000 C   0  0  0  0  0  0  0  0  0  0  0  0
   10.3923   -1.5000   -0.0000 C   0  0  0  0  0  0  0  0  0  0  0  0
    3.4641   -0.5000   -0.0000 C   0  0  0  0  0  0  0  0  0  0  0  0
   10.3923   -3.5000   -0.0000 C   0  0  0  0  0  0  0  0  0  0  0  0
   11.2583   -2.0000   -0.0000 C   0  0  0  0  0  0  0  0  0  0  0  0
    2.5981   -0.0000   -0.0000 C   0  0  0  0  0  0  0  0  0  0  0  0
   11.2583   -3.0000   -0.0000 C   0  0  0  0  0  0  0  0  0  0  0  0
    1.7321   -0.5000   -0.0000 C   0  0  0  0  0  0  0  0  0  0  0  0
    0.8660   -0.0000   -0.0000 C   0  0  0  0  0  0  0  0  0  0  0  0
    0.0000   -0.5000   -0.0000 N   0  0  0  0  0  0  0  0  0  0  0  0
   -0.8660    0.0000   -0.0000 C   0  0  0  0  0  0  0  0  0  0  0  0
   -0.0000   -1.5000   -0.0000 C   0  0  0  0  0  0  0  0  0  0  0  0
   -1.7321   -0.5000   -0.0000 C   0  0  0  0  0  0  0  0  0  0  0  0
   -0.8660    1.0000   -0.0000 C   0  0  0  0  0  0  0  0  0  0  0  0
   -0.8660   -2.0000   -0.0000 C   0  0  0  0  0  0  0  0  0  0  0  0
   -2.5981    0.0000   -0.0000 O   0  0  0  0  0  0  0  0  0  0  0  0
   -1.7321   -1.5000   -0.0000 C   0  0  0  0  0  0  0  0  0  0  0  0
   -1.7321    1.5000   -0.0000 O   0  0  0  0  0  0  0  0  0  0  0  0
   -0.8660   -3.0000   -0.0000 O   0  0  0  0  0  0  0  0  0  0  0  0
   -2.5981   -2.0000   -0.0000 O   0  0  0  0  0  0  0  0  0  0  0  0
  1  2  1  0  0  0  0
  2  3  1  0  0  0  0
  2  4  1  0  0  0  0
  2  5  1  0  0  0  0
  5  6  2  0  0  0  0
  5  7  1  0  0  0  0
  6  8  1  0  0  0  0
  6  9  1  0  0  0  0
  7 10  2  0  0  0  0
  8 11  2  0  0  0  0
  9 12  1  0  0  0  0
 10 13  1  0  0  0  0
 12 14  1  0  0  0  0
 13 15  2  0  0  0  0
 13 16  1  0  0  0  0
 14 17  1  0  0  0  0
 15 18  1  0  0  0  0
 16 19  2  0  0  0  0
 17 20  1  0  0  0  0
 18 21  2  0  0  0  0
 20 22  1  0  0  0  0
 22 23  1  0  0  0  0
 23 24  1  0  0  0  0
 24 25  1  0  0  0  0
 24 26  1  0  0  0  0
 25 27  1  0  0  0  0
 25 28  1  1  0  0  0
 26 29  1  0  0  0  0
 27 30  1  6  0  0  0
 27 31  1  0  0  0  0
 28 32  1  0  0  0  0
 29 33  1  6  0  0  0
 31 34  1  1  0  0  0
 10 11  1  0  0  0  0
 19 21  1  0  0  0  0
 29 31  1  0  0  0  0
M  END
>  <S/N>
154

>  <Compound ID>
C_167

>  <PubChem CID>
118411071

>  <Isomeric SMILES>
C1[C@@H]([C@H]([C@@H]([C@H](N1CCCCCOCC2=C(C=C(C=C2)C3=CC=CC=C3)C(F)(F)F)CO)O)O)O

>  <IC50 (�M)>
8

>  <pIC50>
5.1

$$$$
C_168
Actelion Java MolfileCreator 1.0

 31 33  0  0  1  0  0  0  0  0999 V2000
    7.7942    1.0000   -0.0000 F   0  0  0  0  0  0  0  0  0  0  0  0
    7.7942    0.0000   -0.0000 C   0  0  0  0  0  0  0  0  0  0  0  0
    6.9282   -0.5000   -0.0000 C   0  0  0  0  0  0  0  0  0  0  0  0
    8.6603   -0.5000   -0.0000 C   0  0  0  0  0  0  0  0  0  0  0  0
    6.9282   -1.5000   -0.0000 C   0  0  0  0  0  0  0  0  0  0  0  0
    6.0622   -0.0000   -0.0000 C   0  0  0  0  0  0  0  0  0  0  0  0
    8.6603   -1.5000   -0.0000 C   0  0  0  0  0  0  0  0  0  0  0  0
    7.7942   -2.0000   -0.0000 C   0  0  0  0  0  0  0  0  0  0  0  0
    5.1962   -0.5000   -0.0000 O   0  0  0  0  0  0  0  0  0  0  0  0
    9.5263   -2.0000   -0.0000 C   0  0  0  0  0  0  0  0  0  0  0  0
    4.3301   -0.0000   -0.0000 C   0  0  0  0  0  0  0  0  0  0  0  0
    9.5263   -3.0000   -0.0000 C   0  0  0  0  0  0  0  0  0  0  0  0
   10.3923   -1.5000   -0.0000 C   0  0  0  0  0  0  0  0  0  0  0  0
    3.4641   -0.5000   -0.0000 C   0  0  0  0  0  0  0  0  0  0  0  0
   10.3923   -3.5000   -0.0000 C   0  0  0  0  0  0  0  0  0  0  0  0
   11.2583   -2.0000   -0.0000 C   0  0  0  0  0  0  0  0  0  0  0  0
    2.5981   -0.0000   -0.0000 C   0  0  0  0  0  0  0  0  0  0  0  0
   11.2583   -3.0000   -0.0000 C   0  0  0  0  0  0  0  0  0  0  0  0
    1.7321   -0.5000   -0.0000 C   0  0  0  0  0  0  0  0  0  0  0  0
    0.8660   -0.0000   -0.0000 C   0  0  0  0  0  0  0  0  0  0  0  0
    0.0000   -0.5000   -0.0000 N   0  0  0  0  0  0  0  0  0  0  0  0
   -0.8660    0.0000   -0.0000 C   0  0  0  0  0  0  0  0  0  0  0  0
   -0.0000   -1.5000   -0.0000 C   0  0  0  0  0  0  0  0  0  0  0  0
   -1.7321   -0.5000   -0.0000 C   0  0  0  0  0  0  0  0  0  0  0  0
   -0.8660    1.0000   -0.0000 C   0  0  0  0  0  0  0  0  0  0  0  0
   -0.8660   -2.0000   -0.0000 C   0  0  0  0  0  0  0  0  0  0  0  0
   -2.5981    0.0000   -0.0000 O   0  0  0  0  0  0  0  0  0  0  0  0
   -1.7321   -1.5000   -0.0000 C   0  0  0  0  0  0  0  0  0  0  0  0
   -1.7321    1.5000   -0.0000 O   0  0  0  0  0  0  0  0  0  0  0  0
   -0.8660   -3.0000   -0.0000 O   0  0  0  0  0  0  0  0  0  0  0  0
   -2.5981   -2.0000   -0.0000 O   0  0  0  0  0  0  0  0  0  0  0  0
  1  2  1  0  0  0  0
  2  3  2  0  0  0  0
  2  4  1  0  0  0  0
  3  5  1  0  0  0  0
  3  6  1  0  0  0  0
  4  7  2  0  0  0  0
  5  8  2  0  0  0  0
  6  9  1  0  0  0  0
  7 10  1  0  0  0  0
  9 11  1  0  0  0  0
 10 12  2  0  0  0  0
 10 13  1  0  0  0  0
 11 14  1  0  0  0  0
 12 15  1  0  0  0  0
 13 16  2  0  0  0  0
 14 17  1  0  0  0  0
 15 18  2  0  0  0  0
 17 19  1  0  0  0  0
 19 20  1  0  0  0  0
 20 21  1  0  0  0  0
 21 22  1  0  0  0  0
 21 23  1  0  0  0  0
 22 24  1  0  0  0  0
 22 25  1  1  0  0  0
 23 26  1  0  0  0  0
 24 27  1  6  0  0  0
 24 28  1  0  0  0  0
 25 29  1  0  0  0  0
 26 30  1  6  0  0  0
 28 31  1  1  0  0  0
  7  8  1  0  0  0  0
 16 18  1  0  0  0  0
 26 28  1  0  0  0  0
M  END
>  <S/N>
155

>  <Compound ID>
C_168

>  <PubChem CID>
118411072

>  <Isomeric SMILES>
C1[C@@H]([C@H]([C@@H]([C@H](N1CCCCCOCC2=C(C=C(C=C2)C3=CC=CC=C3)F)CO)O)O)O

>  <IC50 (�M)>
2.5

>  <pIC50>
5.6

$$$$
C_169
Actelion Java MolfileCreator 1.0

 30 32  0  0  1  0  0  0  0  0999 V2000
    7.7942   -0.7500   -0.0000 O   0  0  0  0  0  0  0  0  0  0  0  0
    9.0933   -0.0000   -0.0000 C   0  0  0  0  0  0  0  0  0  0  0  0
    6.4952   -0.0000   -0.0000 C   0  0  0  0  0  0  0  0  0  0  0  0
   10.3923   -0.7500   -0.0000 C   0  0  0  0  0  0  0  0  0  0  0  0
    5.1962   -0.7500   -0.0000 C   0  0  0  0  0  0  0  0  0  0  0  0
   10.3923   -2.2500   -0.0000 C   0  0  0  0  0  0  0  0  0  0  0  0
   11.6913   -0.0000   -0.0000 C   0  0  0  0  0  0  0  0  0  0  0  0
    3.8971   -0.0000   -0.0000 C   0  0  0  0  0  0  0  0  0  0  0  0
   11.6913   -3.0000   -0.0000 C   0  0  0  0  0  0  0  0  0  0  0  0
   12.9904   -0.7500   -0.0000 C   0  0  0  0  0  0  0  0  0  0  0  0
    2.5981   -0.7500   -0.0000 C   0  0  0  0  0  0  0  0  0  0  0  0
   12.9904   -2.2500   -0.0000 C   0  0  0  0  0  0  0  0  0  0  0  0
    1.2990   -0.0000   -0.0000 C   0  0  0  0  0  0  0  0  0  0  0  0
   14.2894   -3.0000   -0.0000 C   0  0  0  0  0  0  0  0  0  0  0  0
    0.0000   -0.7500   -0.0000 N   0  0  0  0  0  0  0  0  0  0  0  0
   14.2894   -4.5000   -0.0000 C   0  0  0  0  0  0  0  0  0  0  0  0
   15.5885   -2.2500   -0.0000 C   0  0  0  0  0  0  0  0  0  0  0  0
   -1.2990    0.0000   -0.0000 C   0  0  0  0  0  0  0  0  0  0  0  0
   -0.0000   -2.2500   -0.0000 C   0  0  0  0  0  0  0  0  0  0  0  0
   15.5885   -5.2500   -0.0000 C   0  0  0  0  0  0  0  0  0  0  0  0
   16.8875   -3.0000   -0.0000 C   0  0  0  0  0  0  0  0  0  0  0  0
   -2.5981   -0.7500   -0.0000 C   0  0  0  0  0  0  0  0  0  0  0  0
   -1.2990    1.5000   -0.0000 C   0  0  0  0  0  0  0  0  0  0  0  0
   -1.2990   -3.0000   -0.0000 C   0  0  0  0  0  0  0  0  0  0  0  0
   16.8875   -4.5000   -0.0000 C   0  0  0  0  0  0  0  0  0  0  0  0
   -3.8971    0.0000   -0.0000 O   0  0  0  0  0  0  0  0  0  0  0  0
   -2.5981   -2.2500   -0.0000 C   0  0  0  0  0  0  0  0  0  0  0  0
   -2.5981    2.2500   -0.0000 O   0  0  0  0  0  0  0  0  0  0  0  0
   -1.2990   -4.5000   -0.0000 O   0  0  0  0  0  0  0  0  0  0  0  0
   -3.8971   -3.0000   -0.0000 O   0  0  0  0  0  0  0  0  0  0  0  0
  1  2  1  0  0  0  0
  1  3  1  0  0  0  0
  2  4  1  0  0  0  0
  3  5  1  0  0  0  0
  4  6  2  0  0  0  0
  4  7  1  0  0  0  0
  5  8  1  0  0  0  0
  6  9  1  0  0  0  0
  7 10  2  0  0  0  0
  8 11  1  0  0  0  0
  9 12  2  0  0  0  0
 11 13  1  0  0  0  0
 12 14  1  0  0  0  0
 13 15  1  0  0  0  0
 14 16  2  0  0  0  0
 14 17  1  0  0  0  0
 15 18  1  0  0  0  0
 15 19  1  0  0  0  0
 16 20  1  0  0  0  0
 17 21  2  0  0  0  0
 18 22  1  0  0  0  0
 18 23  1  1  0  0  0
 19 24  1  0  0  0  0
 20 25  2  0  0  0  0
 22 26  1  6  0  0  0
 22 27  1  0  0  0  0
 23 28  1  0  0  0  0
 24 29  1  6  0  0  0
 27 30  1  1  0  0  0
 10 12  1  0  0  0  0
 21 25  1  0  0  0  0
 24 27  1  0  0  0  0
M  END
>  <S/N>
156

>  <Compound ID>
C_169

>  <PubChem CID>
118411073

>  <Isomeric SMILES>
C1[C@@H]([C@H]([C@@H]([C@H](N1CCCCCOCC2=CC=C(C=C2)C3=CC=CC=C3)CO)O)O)O

>  <IC50 (�M)>
2

>  <pIC50>
5.7

$$$$
C_170
Actelion Java MolfileCreator 1.0

 31 33  0  0  1  0  0  0  0  0999 V2000
    7.7942   -3.0000   -0.0000 F   0  0  0  0  0  0  0  0  0  0  0  0
    7.7942   -2.0000   -0.0000 C   0  0  0  0  0  0  0  0  0  0  0  0
    8.6603   -1.5000   -0.0000 C   0  0  0  0  0  0  0  0  0  0  0  0
    6.9282   -1.5000   -0.0000 C   0  0  0  0  0  0  0  0  0  0  0  0
    9.5263   -2.0000   -0.0000 C   0  0  0  0  0  0  0  0  0  0  0  0
    8.6603   -0.5000   -0.0000 C   0  0  0  0  0  0  0  0  0  0  0  0
    6.9282   -0.5000   -0.0000 C   0  0  0  0  0  0  0  0  0  0  0  0
    9.5263   -3.0000   -0.0000 C   0  0  0  0  0  0  0  0  0  0  0  0
   10.3923   -1.5000   -0.0000 C   0  0  0  0  0  0  0  0  0  0  0  0
    7.7942   -0.0000   -0.0000 C   0  0  0  0  0  0  0  0  0  0  0  0
    6.0622   -0.0000   -0.0000 C   0  0  0  0  0  0  0  0  0  0  0  0
   10.3923   -3.5000   -0.0000 C   0  0  0  0  0  0  0  0  0  0  0  0
   11.2583   -2.0000   -0.0000 C   0  0  0  0  0  0  0  0  0  0  0  0
    5.1962   -0.5000   -0.0000 O   0  0  0  0  0  0  0  0  0  0  0  0
   11.2583   -3.0000   -0.0000 C   0  0  0  0  0  0  0  0  0  0  0  0
    4.3301   -0.0000   -0.0000 C   0  0  0  0  0  0  0  0  0  0  0  0
    3.4641   -0.5000   -0.0000 C   0  0  0  0  0  0  0  0  0  0  0  0
    2.5981   -0.0000   -0.0000 C   0  0  0  0  0  0  0  0  0  0  0  0
    1.7321   -0.5000   -0.0000 C   0  0  0  0  0  0  0  0  0  0  0  0
    0.8660   -0.0000   -0.0000 C   0  0  0  0  0  0  0  0  0  0  0  0
    0.0000   -0.5000   -0.0000 N   0  0  0  0  0  0  0  0  0  0  0  0
   -0.8660    0.0000   -0.0000 C   0  0  0  0  0  0  0  0  0  0  0  0
   -0.0000   -1.5000   -0.0000 C   0  0  0  0  0  0  0  0  0  0  0  0
   -1.7321   -0.5000   -0.0000 C   0  0  0  0  0  0  0  0  0  0  0  0
   -0.8660    1.0000   -0.0000 C   0  0  0  0  0  0  0  0  0  0  0  0
   -0.8660   -2.0000   -0.0000 C   0  0  0  0  0  0  0  0  0  0  0  0
   -2.5981    0.0000   -0.0000 O   0  0  0  0  0  0  0  0  0  0  0  0
   -1.7321   -1.5000   -0.0000 C   0  0  0  0  0  0  0  0  0  0  0  0
   -1.7321    1.5000   -0.0000 O   0  0  0  0  0  0  0  0  0  0  0  0
   -0.8660   -3.0000   -0.0000 O   0  0  0  0  0  0  0  0  0  0  0  0
   -2.5981   -2.0000   -0.0000 O   0  0  0  0  0  0  0  0  0  0  0  0
  1  2  1  0  0  0  0
  2  3  2  0  0  0  0
  2  4  1  0  0  0  0
  3  5  1  0  0  0  0
  3  6  1  0  0  0  0
  4  7  2  0  0  0  0
  5  8  2  0  0  0  0
  5  9  1  0  0  0  0
  6 10  2  0  0  0  0
  7 11  1  0  0  0  0
  8 12  1  0  0  0  0
  9 13  2  0  0  0  0
 11 14  1  0  0  0  0
 12 15  2  0  0  0  0
 14 16  1  0  0  0  0
 16 17  1  0  0  0  0
 17 18  1  0  0  0  0
 18 19  1  0  0  0  0
 19 20  1  0  0  0  0
 20 21  1  0  0  0  0
 21 22  1  0  0  0  0
 21 23  1  0  0  0  0
 22 24  1  0  0  0  0
 22 25  1  1  0  0  0
 23 26  1  0  0  0  0
 24 27  1  6  0  0  0
 24 28  1  0  0  0  0
 25 29  1  0  0  0  0
 26 30  1  6  0  0  0
 28 31  1  1  0  0  0
  7 10  1  0  0  0  0
 13 15  1  0  0  0  0
 26 28  1  0  0  0  0
M  END
>  <S/N>
157

>  <Compound ID>
C_170

>  <PubChem CID>
118411074

>  <Isomeric SMILES>
C1[C@@H]([C@H]([C@@H]([C@H](N1CCCCCOCC2=CC(=C(C=C2)C3=CC=CC=C3)F)CO)O)O)O

>  <IC50 (�M)>
3

>  <pIC50>
5.52

$$$$
C_171
Actelion Java MolfileCreator 1.0

 30 32  0  0  1  0  0  0  0  0999 V2000
    5.1962   -0.5000   -0.0000 O   0  0  0  0  0  0  0  0  0  0  0  0
    6.0622   -0.0000   -0.0000 C   0  0  0  0  0  0  0  0  0  0  0  0
    4.3301   -0.0000   -0.0000 C   0  0  0  0  0  0  0  0  0  0  0  0
    6.9282   -0.5000   -0.0000 C   0  0  0  0  0  0  0  0  0  0  0  0
    3.4641   -0.5000   -0.0000 C   0  0  0  0  0  0  0  0  0  0  0  0
    6.9282   -1.5000   -0.0000 C   0  0  0  0  0  0  0  0  0  0  0  0
    7.7942   -0.0000   -0.0000 C   0  0  0  0  0  0  0  0  0  0  0  0
    2.5981   -0.0000   -0.0000 C   0  0  0  0  0  0  0  0  0  0  0  0
    6.0622   -2.0000   -0.0000 C   0  0  0  0  0  0  0  0  0  0  0  0
    7.7942   -2.0000   -0.0000 C   0  0  0  0  0  0  0  0  0  0  0  0
    8.6603   -0.5000   -0.0000 C   0  0  0  0  0  0  0  0  0  0  0  0
    1.7321   -0.5000   -0.0000 C   0  0  0  0  0  0  0  0  0  0  0  0
    5.1962   -1.5000   -0.0000 C   0  0  0  0  0  0  0  0  0  0  0  0
    6.0622   -3.0000   -0.0000 C   0  0  0  0  0  0  0  0  0  0  0  0
    8.6603   -1.5000   -0.0000 C   0  0  0  0  0  0  0  0  0  0  0  0
    0.8660   -0.0000   -0.0000 C   0  0  0  0  0  0  0  0  0  0  0  0
    4.3301   -2.0000   -0.0000 C   0  0  0  0  0  0  0  0  0  0  0  0
    5.1962   -3.5000   -0.0000 C   0  0  0  0  0  0  0  0  0  0  0  0
    0.0000   -0.5000   -0.0000 N   0  0  0  0  0  0  0  0  0  0  0  0
    4.3301   -3.0000   -0.0000 C   0  0  0  0  0  0  0  0  0  0  0  0
   -0.8660    0.0000   -0.0000 C   0  0  0  0  0  0  0  0  0  0  0  0
   -0.0000   -1.5000   -0.0000 C   0  0  0  0  0  0  0  0  0  0  0  0
   -1.7321   -0.5000   -0.0000 C   0  0  0  0  0  0  0  0  0  0  0  0
   -0.8660    1.0000   -0.0000 C   0  0  0  0  0  0  0  0  0  0  0  0
   -0.8660   -2.0000   -0.0000 C   0  0  0  0  0  0  0  0  0  0  0  0
   -2.5981    0.0000   -0.0000 O   0  0  0  0  0  0  0  0  0  0  0  0
   -1.7321   -1.5000   -0.0000 C   0  0  0  0  0  0  0  0  0  0  0  0
   -1.7321    1.5000   -0.0000 O   0  0  0  0  0  0  0  0  0  0  0  0
   -0.8660   -3.0000   -0.0000 O   0  0  0  0  0  0  0  0  0  0  0  0
   -2.5981   -2.0000   -0.0000 O   0  0  0  0  0  0  0  0  0  0  0  0
  1  2  1  0  0  0  0
  1  3  1  0  0  0  0
  2  4  1  0  0  0  0
  3  5  1  0  0  0  0
  4  6  2  0  0  0  0
  4  7  1  0  0  0  0
  5  8  1  0  0  0  0
  6  9  1  0  0  0  0
  6 10  1  0  0  0  0
  7 11  2  0  0  0  0
  8 12  1  0  0  0  0
  9 13  2  0  0  0  0
  9 14  1  0  0  0  0
 10 15  2  0  0  0  0
 12 16  1  0  0  0  0
 13 17  1  0  0  0  0
 14 18  2  0  0  0  0
 16 19  1  0  0  0  0
 17 20  2  0  0  0  0
 19 21  1  0  0  0  0
 19 22  1  0  0  0  0
 21 23  1  0  0  0  0
 21 24  1  1  0  0  0
 22 25  1  0  0  0  0
 23 26  1  6  0  0  0
 23 27  1  0  0  0  0
 24 28  1  0  0  0  0
 25 29  1  6  0  0  0
 27 30  1  1  0  0  0
 11 15  1  0  0  0  0
 18 20  1  0  0  0  0
 25 27  1  0  0  0  0
M  END
>  <S/N>
158

>  <Compound ID>
C_171

>  <PubChem CID>
118411076

>  <Isomeric SMILES>
C1[C@@H]([C@H]([C@@H]([C@H](N1CCCCCOCC2=CC=CC=C2C3=CC=CC=C3)CO)O)O)O

>  <IC50 (�M)>
1.5

>  <pIC50>
5.82

$$$$
C_172
Actelion Java MolfileCreator 1.0

 17 17  0  0  1  0  0  0  0  0999 V2000
   -0.0000   -2.5000   -0.0000 O   0  0  0  0  0  0  0  0  0  0  0  0
    0.8660   -3.0000   -0.0000 C   0  0  0  0  0  0  0  0  0  0  0  0
    1.7321   -3.5000   -0.0000 C   0  0  0  0  0  0  0  0  0  0  0  0
    0.8660   -2.0000   -0.0000 C   0  0  0  0  0  0  0  0  0  0  0  0
   -0.0000   -3.5000   -0.0000 C   0  0  0  0  0  0  0  0  0  0  0  0
    1.7321   -4.5000   -0.0000 O   0  0  0  0  0  0  0  0  0  0  0  0
    2.5981   -3.0000   -0.0000 C   0  0  0  0  0  0  0  0  0  0  0  0
    1.7321   -1.5000   -0.0000 C   0  0  0  0  0  0  0  0  0  0  0  0
   -0.8660   -3.0000   -0.0000 O   0  0  0  0  0  0  0  0  0  0  0  0
    3.4641   -3.5000   -0.0000 O   0  0  0  0  0  0  0  0  0  0  0  0
    2.5981   -2.0000   -0.0000 C   0  0  0  0  0  0  0  0  0  0  0  0
    1.7321   -0.5000   -0.0000 N   0  0  0  0  0  0  0  0  0  0  0  0
    3.4641   -1.5000   -0.0000 O   0  0  0  0  0  0  0  0  0  0  0  0
    2.5981   -0.0000   -0.0000 C   0  0  0  0  0  0  0  0  0  0  0  0
    0.8660   -0.0000   -0.0000 C   0  0  0  0  0  0  0  0  0  0  0  0
    3.4641   -0.5000   -0.0000 O   0  0  0  0  0  0  0  0  0  0  0  0
    0.0000   -0.5000   -0.0000 O   0  0  0  0  0  0  0  0  0  0  0  0
  2  1  1  6  0  0  0
  2  3  1  0  0  0  0
  2  4  1  0  0  0  0
  2  5  1  0  0  0  0
  3  6  1  6  0  0  0
  3  7  1  0  0  0  0
  4  8  1  0  0  0  0
  5  9  1  0  0  0  0
  7 10  1  1  0  0  0
  7 11  1  0  0  0  0
  8 12  1  6  0  0  0
 11 13  1  6  0  0  0
 12 14  1  0  0  0  0
 12 15  1  0  0  0  0
 14 16  1  0  0  0  0
 15 17  1  0  0  0  0
  8 11  1  0  0  0  0
M  END
>  <S/N>
159

>  <Compound ID>
C_172

>  <PubChem CID>
118718367

>  <Isomeric SMILES>
C1[C@@H]([C@@H]([C@H]([C@@H]([C@]1(CO)O)O)O)O)N(CO)CO

>  <IC50 (�M)>
0.01

>  <pIC50>
7.82

$$$$
C_173
Actelion Java MolfileCreator 1.0

 20 21  0  0  1  0  0  0  0  0999 V2000
    5.1962    0.5000   -0.0000 O   0  0  0  0  0  0  0  0  0  0  0  0
    4.3301   -0.0000   -0.0000 C   0  0  0  0  0  0  0  0  0  0  0  0
    4.3301    1.0000   -0.0000 C   0  0  0  0  0  0  0  0  0  0  0  0
    3.4641   -0.5000   -0.0000 C   0  0  0  0  0  0  0  0  0  0  0  0
    5.1962   -0.5000   -0.0000 C   0  0  0  0  0  0  0  0  0  0  0  0
    5.1962    1.5000   -0.0000 O   0  0  0  0  0  0  0  0  0  0  0  0
    3.4641    1.5000   -0.0000 C   0  0  0  0  0  0  0  0  0  0  0  0
    2.5981   -0.0000   -0.0000 C   0  0  0  0  0  0  0  0  0  0  0  0
    5.1962   -1.5000   -0.0000 O   0  0  0  0  0  0  0  0  0  0  0  0
    3.4641    2.5000   -0.0000 O   0  0  0  0  0  0  0  0  0  0  0  0
    2.5981    1.0000   -0.0000 C   0  0  0  0  0  0  0  0  0  0  0  0
    1.7321   -0.5000   -0.0000 N   0  0  0  0  0  0  0  0  0  0  0  0
    1.7321    1.5000   -0.0000 O   0  0  0  0  0  0  0  0  0  0  0  0
    0.8660   -0.0000   -0.0000 C   0  0  0  0  0  0  0  0  0  0  0  0
    0.0000   -0.5000   -0.0000 C   0  0  0  0  0  0  0  0  0  0  0  0
   -0.8660    0.0000   -0.0000 C   0  0  0  0  0  0  0  0  0  0  0  0
   -0.0000   -1.5000   -0.0000 C   0  0  0  0  0  0  0  0  0  0  0  0
   -1.7321   -0.5000   -0.0000 C   0  0  0  0  0  0  0  0  0  0  0  0
   -0.8660   -2.0000   -0.0000 C   0  0  0  0  0  0  0  0  0  0  0  0
   -1.7321   -1.5000   -0.0000 C   0  0  0  0  0  0  0  0  0  0  0  0
  2  1  1  6  0  0  0
  2  3  1  0  0  0  0
  2  4  1  0  0  0  0
  2  5  1  0  0  0  0
  3  6  1  6  0  0  0
  3  7  1  0  0  0  0
  4  8  1  0  0  0  0
  5  9  1  0  0  0  0
  7 10  1  1  0  0  0
  7 11  1  0  0  0  0
  8 12  1  6  0  0  0
 11 13  1  6  0  0  0
 12 14  1  0  0  0  0
 14 15  1  0  0  0  0
 15 16  1  0  0  0  0
 15 17  1  0  0  0  0
 16 18  1  0  0  0  0
 17 19  1  0  0  0  0
 18 20  1  0  0  0  0
  8 11  1  0  0  0  0
 19 20  1  0  0  0  0
M  END
>  <S/N>
160

>  <Compound ID>
C_173

>  <PubChem CID>
118718368

>  <Isomeric SMILES>
C1CCC(CC1)CN[C@H]2C[C@@]([C@H]([C@@H]([C@H]2O)O)O)(CO)O

>  <IC50 (�M)>
0.24

>  <pIC50>
6.62

$$$$
C_174
Actelion Java MolfileCreator 1.0

 19 20  0  0  1  0  0  0  0  0999 V2000
    1.7321   -2.5000   -0.0000 O   0  0  0  0  0  0  0  0  0  0  0  0
    2.5981   -2.0000   -0.0000 C   0  0  0  0  0  0  0  0  0  0  0  0
    3.4641   -1.5000   -0.0000 C   0  0  0  0  0  0  0  0  0  0  0  0
    1.7321   -1.5000   -0.0000 C   0  0  0  0  0  0  0  0  0  0  0  0
    2.5981   -3.0000   -0.0000 C   0  0  0  0  0  0  0  0  0  0  0  0
    4.3301   -2.0000   -0.0000 O   0  0  0  0  0  0  0  0  0  0  0  0
    3.4641   -0.5000   -0.0000 C   0  0  0  0  0  0  0  0  0  0  0  0
    1.7321   -0.5000   -0.0000 C   0  0  0  0  0  0  0  0  0  0  0  0
    1.7321   -3.5000   -0.0000 O   0  0  0  0  0  0  0  0  0  0  0  0
    4.3301   -0.0000   -0.0000 O   0  0  0  0  0  0  0  0  0  0  0  0
    2.5981    0.0000   -0.0000 C   0  0  0  0  0  0  0  0  0  0  0  0
    0.8660   -0.0000   -0.0000 N   0  0  0  0  0  0  0  0  0  0  0  0
    2.5981    1.0000   -0.0000 O   0  0  0  0  0  0  0  0  0  0  0  0
    0.0000   -0.5000   -0.0000 C   0  0  0  0  0  0  0  0  0  0  0  0
   -0.8660    0.0000   -0.0000 C   0  0  0  0  0  0  0  0  0  0  0  0
   -0.0000   -1.5000   -0.0000 C   0  0  0  0  0  0  0  0  0  0  0  0
   -1.7321   -0.5000   -0.0000 C   0  0  0  0  0  0  0  0  0  0  0  0
   -0.8660   -2.0000   -0.0000 C   0  0  0  0  0  0  0  0  0  0  0  0
   -1.7321   -1.5000   -0.0000 C   0  0  0  0  0  0  0  0  0  0  0  0
  2  1  1  6  0  0  0
  2  3  1  0  0  0  0
  2  4  1  0  0  0  0
  2  5  1  0  0  0  0
  3  6  1  6  0  0  0
  3  7  1  0  0  0  0
  4  8  1  0  0  0  0
  5  9  1  0  0  0  0
  7 10  1  1  0  0  0
  7 11  1  0  0  0  0
  8 12  1  6  0  0  0
 11 13  1  6  0  0  0
 12 14  1  0  0  0  0
 14 15  1  0  0  0  0
 14 16  1  0  0  0  0
 15 17  1  0  0  0  0
 16 18  1  0  0  0  0
 17 19  1  0  0  0  0
  8 11  1  0  0  0  0
 18 19  1  0  0  0  0
M  END
>  <S/N>
161

>  <Compound ID>
C_174

>  <PubChem CID>
118718369

>  <Isomeric SMILES>
C1CCC(CC1)N[C@H]2C[C@@]([C@H]([C@@H]([C@H]2O)O)O)(CO)O

>  <IC50 (�M)>
0.41

>  <pIC50>
6.39

$$$$
C_175
Actelion Java MolfileCreator 1.0

 21 22  0  0  1  0  0  0  0  0999 V2000
    5.1962    1.5000   -0.0000 Br  0  0  0  0  0  0  0  0  0  0  0  0
    4.3301    1.0000   -0.0000 C   0  0  0  0  0  0  0  0  0  0  0  0
    3.4641    1.5000   -0.0000 C   0  0  0  0  0  0  0  0  0  0  0  0
    4.3301    0.0000   -0.0000 C   0  0  0  0  0  0  0  0  0  0  0  0
    2.5981    1.0000   -0.0000 C   0  0  0  0  0  0  0  0  0  0  0  0
    3.4641   -0.5000   -0.0000 C   0  0  0  0  0  0  0  0  0  0  0  0
    2.5981   -0.0000   -0.0000 C   0  0  0  0  0  0  0  0  0  0  0  0
    1.7321   -0.5000   -0.0000 C   0  0  0  0  0  0  0  0  0  0  0  0
    0.8660   -0.0000   -0.0000 N   0  0  0  0  0  0  0  0  0  0  0  0
    0.0000   -0.5000   -0.0000 C   0  0  0  0  0  0  0  0  0  0  0  0
   -0.8660    0.0000   -0.0000 C   0  0  0  0  0  0  0  0  0  0  0  0
   -0.0000   -1.5000   -0.0000 C   0  0  0  0  0  0  0  0  0  0  0  0
   -0.8660    1.0000   -0.0000 O   0  0  0  0  0  0  0  0  0  0  0  0
   -1.7321   -0.5000   -0.0000 C   0  0  0  0  0  0  0  0  0  0  0  0
   -0.8660   -2.0000   -0.0000 C   0  0  0  0  0  0  0  0  0  0  0  0
   -2.5981    0.0000   -0.0000 O   0  0  0  0  0  0  0  0  0  0  0  0
   -1.7321   -1.5000   -0.0000 C   0  0  0  0  0  0  0  0  0  0  0  0
   -1.7321   -2.5000   -0.0000 O   0  0  0  0  0  0  0  0  0  0  0  0
   -0.8660   -3.0000   -0.0000 C   0  0  0  0  0  0  0  0  0  0  0  0
   -2.5981   -2.0000   -0.0000 O   0  0  0  0  0  0  0  0  0  0  0  0
   -1.7321   -3.5000   -0.0000 O   0  0  0  0  0  0  0  0  0  0  0  0
  1  2  1  0  0  0  0
  2  3  2  0  0  0  0
  2  4  1  0  0  0  0
  3  5  1  0  0  0  0
  4  6  2  0  0  0  0
  5  7  2  0  0  0  0
  7  8  1  0  0  0  0
  8  9  1  0  0  0  0
 10  9  1  1  0  0  0
 10 11  1  0  0  0  0
 10 12  1  0  0  0  0
 11 13  1  1  0  0  0
 11 14  1  0  0  0  0
 12 15  1  0  0  0  0
 14 16  1  6  0  0  0
 14 17  1  0  0  0  0
 15 18  1  1  0  0  0
 15 19  1  0  0  0  0
 17 20  1  1  0  0  0
 19 21  1  0  0  0  0
  6  7  1  0  0  0  0
 15 17  1  0  0  0  0
M  END
>  <S/N>
162

>  <Compound ID>
C_175

>  <PubChem CID>
118718370

>  <Isomeric SMILES>
C1[C@@H]([C@@H]([C@H]([C@@H]([C@]1(CO)O)O)O)O)NCC2=CC=C(C=C2)Br

>  <IC50 (�M)>
0.23

>  <pIC50>
6.64

$$$$
C_176
Actelion Java MolfileCreator 1.0

 17 17  0  0  1  0  0  0  0  0999 V2000
    6.0622   -2.0000   -0.0000 O   0  0  0  0  0  0  0  0  0  0  0  0
    5.1962   -1.5000   -0.0000 C   0  0  0  0  0  0  0  0  0  0  0  0
    5.1962   -0.5000   -0.0000 C   0  0  0  0  0  0  0  0  0  0  0  0
    4.3301   -2.0000   -0.0000 C   0  0  0  0  0  0  0  0  0  0  0  0
    4.3301    0.0000   -0.0000 C   0  0  0  0  0  0  0  0  0  0  0  0
    6.0622    0.0000   -0.0000 C   0  0  0  0  0  0  0  0  0  0  0  0
    4.3301   -3.0000   -0.0000 O   0  0  0  0  0  0  0  0  0  0  0  0
    3.4641   -1.5000   -0.0000 C   0  0  0  0  0  0  0  0  0  0  0  0
    3.4641   -0.5000   -0.0000 C   0  0  0  0  0  0  0  0  0  0  0  0
    6.0622    1.0000   -0.0000 O   0  0  0  0  0  0  0  0  0  0  0  0
    2.5981   -2.0000   -0.0000 O   0  0  0  0  0  0  0  0  0  0  0  0
    2.5981   -0.0000   -0.0000 N   0  0  0  0  0  0  0  0  0  0  0  0
    2.5981    1.0000   -0.0000 C   0  0  0  0  0  0  0  0  0  0  0  0
    3.4641    1.5000   -0.0000 C   0  0  0  0  0  0  0  0  0  0  0  0
    1.7321    1.5000   -0.0000 C   0  0  0  0  0  0  0  0  0  0  0  0
    4.3301    1.0000   -0.0000 O   0  0  0  0  0  0  0  0  0  0  0  0
    1.7321    2.5000   -0.0000 O   0  0  0  0  0  0  0  0  0  0  0  0
  2  1  1  1  0  0  0
  2  3  1  0  0  0  0
  2  4  1  0  0  0  0
  3  5  2  0  0  0  0
  3  6  1  0  0  0  0
  4  7  1  6  0  0  0
  4  8  1  0  0  0  0
  5  9  1  0  0  0  0
  6 10  1  0  0  0  0
  8 11  1  1  0  0  0
  9 12  1  1  0  0  0
 12 13  1  0  0  0  0
 13 14  1  0  0  0  0
 13 15  1  0  0  0  0
 14 16  1  0  0  0  0
 15 17  1  0  0  0  0
  8  9  1  0  0  0  0
M  END
>  <S/N>
163

>  <Compound ID>
C_176

>  <PubChem CID>
118718371

>  <Isomeric SMILES>
C1=C([C@H]([C@@H]([C@H]([C@H]1NC(CO)CO)O)O)O)CO

>  <IC50 (�M)>
5.9

>  <pIC50>
5.23

$$$$
C_177
Actelion Java MolfileCreator 1.0

 21 22  0  0  1  0  0  0  0  0999 V2000
    5.1962   -2.5000   -0.0000 O   0  0  0  0  0  0  0  0  0  0  0  0
    4.3301   -2.0000   -0.0000 C   0  0  0  0  0  0  0  0  0  0  0  0
    5.1962   -1.5000   -0.0000 C   0  0  0  0  0  0  0  0  0  0  0  0
    3.4641   -1.5000   -0.0000 C   0  0  0  0  0  0  0  0  0  0  0  0
    4.3301   -3.0000   -0.0000 C   0  0  0  0  0  0  0  0  0  0  0  0
    6.0622   -2.0000   -0.0000 O   0  0  0  0  0  0  0  0  0  0  0  0
    5.1962   -0.5000   -0.0000 C   0  0  0  0  0  0  0  0  0  0  0  0
    3.4641   -0.5000   -0.0000 C   0  0  0  0  0  0  0  0  0  0  0  0
    3.4641   -3.5000   -0.0000 O   0  0  0  0  0  0  0  0  0  0  0  0
    6.0622   -0.0000   -0.0000 O   0  0  0  0  0  0  0  0  0  0  0  0
    4.3301    0.0000   -0.0000 C   0  0  0  0  0  0  0  0  0  0  0  0
    2.5981   -0.0000   -0.0000 N   0  0  0  0  0  0  0  0  0  0  0  0
    4.3301    1.0000   -0.0000 O   0  0  0  0  0  0  0  0  0  0  0  0
    1.7321   -0.5000   -0.0000 C   0  0  0  0  0  0  0  0  0  0  0  0
    0.8660   -0.0000   -0.0000 C   0  0  0  0  0  0  0  0  0  0  0  0
    0.0000   -0.5000   -0.0000 C   0  0  0  0  0  0  0  0  0  0  0  0
   -0.8660    0.0000   -0.0000 C   0  0  0  0  0  0  0  0  0  0  0  0
   -0.0000   -1.5000   -0.0000 C   0  0  0  0  0  0  0  0  0  0  0  0
   -1.7321   -0.5000   -0.0000 C   0  0  0  0  0  0  0  0  0  0  0  0
   -0.8660   -2.0000   -0.0000 C   0  0  0  0  0  0  0  0  0  0  0  0
   -1.7321   -1.5000   -0.0000 C   0  0  0  0  0  0  0  0  0  0  0  0
  2  1  1  6  0  0  0
  2  3  1  0  0  0  0
  2  4  1  0  0  0  0
  2  5  1  0  0  0  0
  3  6  1  6  0  0  0
  3  7  1  0  0  0  0
  4  8  1  0  0  0  0
  5  9  1  0  0  0  0
  7 10  1  1  0  0  0
  7 11  1  0  0  0  0
  8 12  1  6  0  0  0
 11 13  1  6  0  0  0
 12 14  1  0  0  0  0
 14 15  1  0  0  0  0
 15 16  1  0  0  0  0
 16 17  2  0  0  0  0
 16 18  1  0  0  0  0
 17 19  1  0  0  0  0
 18 20  2  0  0  0  0
 19 21  2  0  0  0  0
  8 11  1  0  0  0  0
 20 21  1  0  0  0  0
M  END
>  <S/N>
164

>  <Compound ID>
C_177

>  <PubChem CID>
118718372

>  <Isomeric SMILES>
C1[C@@H]([C@@H]([C@H]([C@@H]([C@]1(CO)O)O)O)O)NCCC2=CC=CC=C2

>  <IC50 (�M)>
0.1

>  <pIC50>
7

$$$$
C_178
Actelion Java MolfileCreator 1.0

 23 23  0  0  1  0  0  0  0  0999 V2000
    9.5263   -1.0000   -0.0000 O   0  0  0  0  0  0  0  0  0  0  0  0
    9.5263   -0.0000   -0.0000 C   0  0  0  0  0  0  0  0  0  0  0  0
    9.5263    1.0000   -0.0000 C   0  0  0  0  0  0  0  0  0  0  0  0
    8.6603   -0.5000   -0.0000 C   0  0  0  0  0  0  0  0  0  0  0  0
   10.3923   -0.5000   -0.0000 C   0  0  0  0  0  0  0  0  0  0  0  0
   10.3923    1.5000   -0.0000 O   0  0  0  0  0  0  0  0  0  0  0  0
    8.6603    1.5000   -0.0000 C   0  0  0  0  0  0  0  0  0  0  0  0
    7.7942   -0.0000   -0.0000 C   0  0  0  0  0  0  0  0  0  0  0  0
   10.3923   -1.5000   -0.0000 O   0  0  0  0  0  0  0  0  0  0  0  0
    8.6603    2.5000   -0.0000 O   0  0  0  0  0  0  0  0  0  0  0  0
    7.7942    1.0000   -0.0000 C   0  0  0  0  0  0  0  0  0  0  0  0
    6.9282   -0.5000   -0.0000 N   0  0  0  0  0  0  0  0  0  0  0  0
    6.9282    1.5000   -0.0000 O   0  0  0  0  0  0  0  0  0  0  0  0
    6.0622   -0.0000   -0.0000 C   0  0  0  0  0  0  0  0  0  0  0  0
    5.1962   -0.5000   -0.0000 C   0  0  0  0  0  0  0  0  0  0  0  0
    4.3301   -0.0000   -0.0000 C   0  0  0  0  0  0  0  0  0  0  0  0
    3.4641   -0.5000   -0.0000 C   0  0  0  0  0  0  0  0  0  0  0  0
    4.3301    1.0000   -0.0000 C   0  0  0  0  0  0  0  0  0  0  0  0
    2.5981   -0.0000   -0.0000 C   0  0  0  0  0  0  0  0  0  0  0  0
    1.7321   -0.5000   -0.0000 C   0  0  0  0  0  0  0  0  0  0  0  0
    0.8660   -0.0000   -0.0000 C   0  0  0  0  0  0  0  0  0  0  0  0
    0.8660    1.0000   -0.0000 C   0  0  0  0  0  0  0  0  0  0  0  0
    0.0000   -0.5000   -0.0000 C   0  0  0  0  0  0  0  0  0  0  0  0
  2  1  1  6  0  0  0
  2  3  1  0  0  0  0
  2  4  1  0  0  0  0
  2  5  1  0  0  0  0
  3  6  1  6  0  0  0
  3  7  1  0  0  0  0
  4  8  1  0  0  0  0
  5  9  1  0  0  0  0
  7 10  1  1  0  0  0
  7 11  1  0  0  0  0
  8 12  1  6  0  0  0
 11 13  1  6  0  0  0
 12 14  1  0  0  0  0
 14 15  1  0  0  0  0
 15 16  2  0  0  0  0
 16 17  1  0  0  0  0
 16 18  1  0  0  0  0
 17 19  1  0  0  0  0
 19 20  1  0  0  0  0
 20 21  2  0  0  0  0
 21 22  1  0  0  0  0
 21 23  1  0  0  0  0
  8 11  1  0  0  0  0
M  END
>  <S/N>
165

>  <Compound ID>
C_178

>  <PubChem CID>
118718373

>  <Isomeric SMILES>
CC(=CCC/C(=C/CN[C@H]1C[C@@]([C@H]([C@@H]([C@H]1O)O)O)(CO)O)/C)C

>  <IC50 (�M)>
0.52

>  <pIC50>
6.28

$$$$
C_180
Actelion Java MolfileCreator 1.0

 19 20  0  0  1  0  0  0  0  0999 V2000
    2.7026    0.9945   -0.0000 S   0  0  0  0  0  0  0  0  0  0  0  0
    2.5981   -0.0000   -0.0000 C   0  0  0  0  0  0  0  0  0  0  0  0
    3.6808    1.2024   -0.0000 C   0  0  0  0  0  0  0  0  0  0  0  0
    3.5116   -0.4067   -0.0000 C   0  0  0  0  0  0  0  0  0  0  0  0
    1.7321   -0.5000   -0.0000 C   0  0  0  0  0  0  0  0  0  0  0  0
    4.1808    0.3364   -0.0000 C   0  0  0  0  0  0  0  0  0  0  0  0
    0.8660   -0.0000   -0.0000 N   0  0  0  0  0  0  0  0  0  0  0  0
    0.0000   -0.5000   -0.0000 C   0  0  0  0  0  0  0  0  0  0  0  0
   -0.8660    0.0000   -0.0000 C   0  0  0  0  0  0  0  0  0  0  0  0
   -0.0000   -1.5000   -0.0000 C   0  0  0  0  0  0  0  0  0  0  0  0
   -0.8660    1.0000   -0.0000 O   0  0  0  0  0  0  0  0  0  0  0  0
   -1.7321   -0.5000   -0.0000 C   0  0  0  0  0  0  0  0  0  0  0  0
   -0.8660   -2.0000   -0.0000 C   0  0  0  0  0  0  0  0  0  0  0  0
   -2.5981    0.0000   -0.0000 O   0  0  0  0  0  0  0  0  0  0  0  0
   -1.7321   -1.5000   -0.0000 C   0  0  0  0  0  0  0  0  0  0  0  0
   -1.7321   -2.5000   -0.0000 O   0  0  0  0  0  0  0  0  0  0  0  0
   -0.8660   -3.0000   -0.0000 C   0  0  0  0  0  0  0  0  0  0  0  0
   -2.5981   -2.0000   -0.0000 O   0  0  0  0  0  0  0  0  0  0  0  0
   -1.7321   -3.5000   -0.0000 O   0  0  0  0  0  0  0  0  0  0  0  0
  1  2  1  0  0  0  0
  1  3  1  0  0  0  0
  2  4  2  0  0  0  0
  2  5  1  0  0  0  0
  3  6  2  0  0  0  0
  5  7  1  0  0  0  0
  8  7  1  1  0  0  0
  8  9  1  0  0  0  0
  8 10  1  0  0  0  0
  9 11  1  1  0  0  0
  9 12  1  0  0  0  0
 10 13  1  0  0  0  0
 12 14  1  6  0  0  0
 12 15  1  0  0  0  0
 13 16  1  1  0  0  0
 13 17  1  0  0  0  0
 15 18  1  1  0  0  0
 17 19  1  0  0  0  0
  4  6  1  0  0  0  0
 13 15  1  0  0  0  0
M  END
>  <S/N>
166

>  <Compound ID>
C_180

>  <PubChem CID>
118718375

>  <Isomeric SMILES>
C1[C@@H]([C@@H]([C@H]([C@@H]([C@]1(CO)O)O)O)O)NCC2=CC=CS2

>  <IC50 (�M)>
0.2

>  <pIC50>
6.7

$$$$
C_181
Actelion Java MolfileCreator 1.0

 29 30  0  0  1  0  0  0  0  0999 V2000
    5.1962    1.5000   -0.0000 O   0  0  0  0  0  0  0  0  0  0  0  0
    4.3301    1.0000   -0.0000 C   0  0  0  0  0  0  0  0  0  0  0  0
    3.4641    1.5000   -0.0000 C   0  0  0  0  0  0  0  0  0  0  0  0
    4.3301    0.0000   -0.0000 C   0  0  0  0  0  0  0  0  0  0  0  0
    2.5981    1.0000   -0.0000 C   0  0  0  0  0  0  0  0  0  0  0  0
    3.4641    2.5000   -0.0000 C   0  0  0  0  0  0  0  0  0  0  0  0
    3.4641   -0.5000   -0.0000 C   0  0  0  0  0  0  0  0  0  0  0  0
    5.1962   -0.5000   -0.0000 C   0  0  0  0  0  0  0  0  0  0  0  0
    2.5981   -0.0000   -0.0000 C   0  0  0  0  0  0  0  0  0  0  0  0
    2.4641    2.5000   -0.0000 C   0  0  0  0  0  0  0  0  0  0  0  0
    3.4641    3.5000   -0.0000 C   0  0  0  0  0  0  0  0  0  0  0  0
    4.4641    2.5000   -0.0000 C   0  0  0  0  0  0  0  0  0  0  0  0
    5.6962    0.3660   -0.0000 C   0  0  0  0  0  0  0  0  0  0  0  0
    6.0622   -1.0000   -0.0000 C   0  0  0  0  0  0  0  0  0  0  0  0
    4.6962   -1.3660   -0.0000 C   0  0  0  0  0  0  0  0  0  0  0  0
    1.7321   -0.5000   -0.0000 C   0  0  0  0  0  0  0  0  0  0  0  0
    0.8660   -0.0000   -0.0000 N   0  0  0  0  0  0  0  0  0  0  0  0
    0.0000   -0.5000   -0.0000 C   0  0  0  0  0  0  0  0  0  0  0  0
   -0.8660    0.0000   -0.0000 C   0  0  0  0  0  0  0  0  0  0  0  0
   -0.0000   -1.5000   -0.0000 C   0  0  0  0  0  0  0  0  0  0  0  0
   -0.8660    1.0000   -0.0000 O   0  0  0  0  0  0  0  0  0  0  0  0
   -1.7321   -0.5000   -0.0000 C   0  0  0  0  0  0  0  0  0  0  0  0
   -0.8660   -2.0000   -0.0000 C   0  0  0  0  0  0  0  0  0  0  0  0
   -2.5981    0.0000   -0.0000 O   0  0  0  0  0  0  0  0  0  0  0  0
   -1.7321   -1.5000   -0.0000 C   0  0  0  0  0  0  0  0  0  0  0  0
   -1.7321   -2.5000   -0.0000 O   0  0  0  0  0  0  0  0  0  0  0  0
   -0.8660   -3.0000   -0.0000 C   0  0  0  0  0  0  0  0  0  0  0  0
   -2.5981   -2.0000   -0.0000 O   0  0  0  0  0  0  0  0  0  0  0  0
   -1.7321   -3.5000   -0.0000 O   0  0  0  0  0  0  0  0  0  0  0  0
  1  2  1  0  0  0  0
  2  3  2  0  0  0  0
  2  4  1  0  0  0  0
  3  5  1  0  0  0  0
  3  6  1  0  0  0  0
  4  7  2  0  0  0  0
  4  8  1  0  0  0  0
  5  9  2  0  0  0  0
  6 10  1  0  0  0  0
  6 11  1  0  0  0  0
  6 12  1  0  0  0  0
  8 13  1  0  0  0  0
  8 14  1  0  0  0  0
  8 15  1  0  0  0  0
  9 16  1  0  0  0  0
 16 17  1  0  0  0  0
 18 17  1  1  0  0  0
 18 19  1  0  0  0  0
 18 20  1  0  0  0  0
 19 21  1  1  0  0  0
 19 22  1  0  0  0  0
 20 23  1  0  0  0  0
 22 24  1  6  0  0  0
 22 25  1  0  0  0  0
 23 26  1  1  0  0  0
 23 27  1  0  0  0  0
 25 28  1  1  0  0  0
 27 29  1  0  0  0  0
  7  9  1  0  0  0  0
 23 25  1  0  0  0  0
M  END
>  <S/N>
167

>  <Compound ID>
C_181

>  <PubChem CID>
118718376

>  <Isomeric SMILES>
CC(C)(C)C1=CC(=CC(=C1O)C(C)(C)C)CN[C@H]2C[C@@]([C@H]([C@@H]([C@H]2O)O)O)(CO)O

>  <IC50 (�M)>
0.04

>  <pIC50>
7.37

$$$$
C_182
Actelion Java MolfileCreator 1.0

 22 23  0  0  1  0  0  0  0  0999 V2000
    6.9282    0.5000   -0.0000 O   0  0  0  0  0  0  0  0  0  0  0  0
    6.0622   -0.0000   -0.0000 C   0  0  0  0  0  0  0  0  0  0  0  0
    6.0622    1.0000   -0.0000 C   0  0  0  0  0  0  0  0  0  0  0  0
    5.1962   -0.5000   -0.0000 C   0  0  0  0  0  0  0  0  0  0  0  0
    6.9282   -0.5000   -0.0000 C   0  0  0  0  0  0  0  0  0  0  0  0
    6.9282    1.5000   -0.0000 O   0  0  0  0  0  0  0  0  0  0  0  0
    5.1962    1.5000   -0.0000 C   0  0  0  0  0  0  0  0  0  0  0  0
    4.3301   -0.0000   -0.0000 C   0  0  0  0  0  0  0  0  0  0  0  0
    6.9282   -1.5000   -0.0000 O   0  0  0  0  0  0  0  0  0  0  0  0
    5.1962    2.5000   -0.0000 O   0  0  0  0  0  0  0  0  0  0  0  0
    4.3301    1.0000   -0.0000 C   0  0  0  0  0  0  0  0  0  0  0  0
    3.4641   -0.5000   -0.0000 N   0  0  0  0  0  0  0  0  0  0  0  0
    3.4641    1.5000   -0.0000 O   0  0  0  0  0  0  0  0  0  0  0  0
    2.5981   -0.0000   -0.0000 C   0  0  0  0  0  0  0  0  0  0  0  0
    1.7321   -0.5000   -0.0000 C   0  0  0  0  0  0  0  0  0  0  0  0
    0.8660   -0.0000   -0.0000 C   0  0  0  0  0  0  0  0  0  0  0  0
    0.0000   -0.5000   -0.0000 C   0  0  0  0  0  0  0  0  0  0  0  0
   -0.8660    0.0000   -0.0000 C   0  0  0  0  0  0  0  0  0  0  0  0
   -0.0000   -1.5000   -0.0000 C   0  0  0  0  0  0  0  0  0  0  0  0
   -1.7321   -0.5000   -0.0000 C   0  0  0  0  0  0  0  0  0  0  0  0
   -0.8660   -2.0000   -0.0000 C   0  0  0  0  0  0  0  0  0  0  0  0
   -1.7321   -1.5000   -0.0000 C   0  0  0  0  0  0  0  0  0  0  0  0
  2  1  1  6  0  0  0
  2  3  1  0  0  0  0
  2  4  1  0  0  0  0
  2  5  1  0  0  0  0
  3  6  1  6  0  0  0
  3  7  1  0  0  0  0
  4  8  1  0  0  0  0
  5  9  1  0  0  0  0
  7 10  1  1  0  0  0
  7 11  1  0  0  0  0
  8 12  1  6  0  0  0
 11 13  1  6  0  0  0
 12 14  1  0  0  0  0
 14 15  1  0  0  0  0
 15 16  2  0  0  0  0
 16 17  1  0  0  0  0
 17 18  2  0  0  0  0
 17 19  1  0  0  0  0
 18 20  1  0  0  0  0
 19 21  2  0  0  0  0
 20 22  2  0  0  0  0
  8 11  1  0  0  0  0
 21 22  1  0  0  0  0
M  END
>  <S/N>
168

>  <Compound ID>
C_182

>  <PubChem CID>
118718377

>  <Isomeric SMILES>
C1[C@@H]([C@@H]([C@H]([C@@H]([C@]1(CO)O)O)O)O)NC/C=C/C2=CC=CC=C2

>  <IC50 (�M)>
0.27

>  <pIC50>
6.57

$$$$
C_183
Actelion Java MolfileCreator 1.0

 20 21  0  0  1  0  0  0  0  0999 V2000
    5.1962    0.5000   -0.0000 O   0  0  0  0  0  0  0  0  0  0  0  0
    4.3301   -0.0000   -0.0000 C   0  0  0  0  0  0  0  0  0  0  0  0
    4.3301    1.0000   -0.0000 C   0  0  0  0  0  0  0  0  0  0  0  0
    3.4641   -0.5000   -0.0000 C   0  0  0  0  0  0  0  0  0  0  0  0
    5.1962   -0.5000   -0.0000 C   0  0  0  0  0  0  0  0  0  0  0  0
    5.1962    1.5000   -0.0000 O   0  0  0  0  0  0  0  0  0  0  0  0
    3.4641    1.5000   -0.0000 C   0  0  0  0  0  0  0  0  0  0  0  0
    2.5981   -0.0000   -0.0000 C   0  0  0  0  0  0  0  0  0  0  0  0
    5.1962   -1.5000   -0.0000 O   0  0  0  0  0  0  0  0  0  0  0  0
    3.4641    2.5000   -0.0000 O   0  0  0  0  0  0  0  0  0  0  0  0
    2.5981    1.0000   -0.0000 C   0  0  0  0  0  0  0  0  0  0  0  0
    1.7321   -0.5000   -0.0000 N   0  0  0  0  0  0  0  0  0  0  0  0
    1.7321    1.5000   -0.0000 O   0  0  0  0  0  0  0  0  0  0  0  0
    0.8660   -0.0000   -0.0000 C   0  0  0  0  0  0  0  0  0  0  0  0
    0.0000   -0.5000   -0.0000 C   0  0  0  0  0  0  0  0  0  0  0  0
   -0.8660    0.0000   -0.0000 C   0  0  0  0  0  0  0  0  0  0  0  0
   -0.0000   -1.5000   -0.0000 C   0  0  0  0  0  0  0  0  0  0  0  0
   -1.7321   -0.5000   -0.0000 N   0  0  0  0  0  0  0  0  0  0  0  0
   -0.8660   -2.0000   -0.0000 C   0  0  0  0  0  0  0  0  0  0  0  0
   -1.7321   -1.5000   -0.0000 C   0  0  0  0  0  0  0  0  0  0  0  0
  2  1  1  6  0  0  0
  2  3  1  0  0  0  0
  2  4  1  0  0  0  0
  2  5  1  0  0  0  0
  3  6  1  6  0  0  0
  3  7  1  0  0  0  0
  4  8  1  0  0  0  0
  5  9  1  0  0  0  0
  7 10  1  1  0  0  0
  7 11  1  0  0  0  0
  8 12  1  6  0  0  0
 11 13  1  6  0  0  0
 12 14  1  0  0  0  0
 14 15  1  0  0  0  0
 15 16  2  0  0  0  0
 15 17  1  0  0  0  0
 16 18  1  0  0  0  0
 17 19  2  0  0  0  0
 18 20  2  0  0  0  0
  8 11  1  0  0  0  0
 19 20  1  0  0  0  0
M  END
>  <S/N>
169

>  <Compound ID>
C_183

>  <PubChem CID>
118718379

>  <Isomeric SMILES>
C1[C@@H]([C@@H]([C@H]([C@@H]([C@]1(CO)O)O)O)O)NCC2=CN=CC=C2

>  <IC50 (�M)>
0.33

>  <pIC50>
6.48

$$$$
C_184
Actelion Java MolfileCreator 1.0

 30 32  0  0  1  0  0  0  0  0999 V2000
    5.1962   -0.5000   -0.0000 O   0  0  0  0  0  0  0  0  0  0  0  0
    6.0622   -0.0000   -0.0000 C   0  0  0  0  0  0  0  0  0  0  0  0
    4.3301   -0.0000   -0.0000 C   0  0  0  0  0  0  0  0  0  0  0  0
    6.9282   -0.5000   -0.0000 C   0  0  0  0  0  0  0  0  0  0  0  0
    3.4641   -0.5000   -0.0000 C   0  0  0  0  0  0  0  0  0  0  0  0
    6.9282   -1.5000   -0.0000 C   0  0  0  0  0  0  0  0  0  0  0  0
    7.7942   -0.0000   -0.0000 C   0  0  0  0  0  0  0  0  0  0  0  0
    2.5981   -0.0000   -0.0000 C   0  0  0  0  0  0  0  0  0  0  0  0
    7.7942   -2.0000   -0.0000 C   0  0  0  0  0  0  0  0  0  0  0  0
    8.6603   -0.5000   -0.0000 C   0  0  0  0  0  0  0  0  0  0  0  0
    1.7321   -0.5000   -0.0000 C   0  0  0  0  0  0  0  0  0  0  0  0
    7.7942   -3.0000   -0.0000 C   0  0  0  0  0  0  0  0  0  0  0  0
    8.6603   -1.5000   -0.0000 C   0  0  0  0  0  0  0  0  0  0  0  0
    0.8660   -0.0000   -0.0000 C   0  0  0  0  0  0  0  0  0  0  0  0
    6.9282   -3.5000   -0.0000 C   0  0  0  0  0  0  0  0  0  0  0  0
    8.6603   -3.5000   -0.0000 C   0  0  0  0  0  0  0  0  0  0  0  0
    0.0000   -0.5000   -0.0000 N   0  0  0  0  0  0  0  0  0  0  0  0
    6.9282   -4.5000   -0.0000 C   0  0  0  0  0  0  0  0  0  0  0  0
    8.6603   -4.5000   -0.0000 C   0  0  0  0  0  0  0  0  0  0  0  0
   -0.8660    0.0000   -0.0000 C   0  0  0  0  0  0  0  0  0  0  0  0
   -0.0000   -1.5000   -0.0000 C   0  0  0  0  0  0  0  0  0  0  0  0
    7.7942   -5.0000   -0.0000 C   0  0  0  0  0  0  0  0  0  0  0  0
   -1.7321   -0.5000   -0.0000 C   0  0  0  0  0  0  0  0  0  0  0  0
   -0.8660    1.0000   -0.0000 C   0  0  0  0  0  0  0  0  0  0  0  0
   -0.8660   -2.0000   -0.0000 C   0  0  0  0  0  0  0  0  0  0  0  0
   -2.5981    0.0000   -0.0000 O   0  0  0  0  0  0  0  0  0  0  0  0
   -1.7321   -1.5000   -0.0000 C   0  0  0  0  0  0  0  0  0  0  0  0
   -1.7321    1.5000   -0.0000 O   0  0  0  0  0  0  0  0  0  0  0  0
   -0.8660   -3.0000   -0.0000 O   0  0  0  0  0  0  0  0  0  0  0  0
   -2.5981   -2.0000   -0.0000 O   0  0  0  0  0  0  0  0  0  0  0  0
  1  2  1  0  0  0  0
  1  3  1  0  0  0  0
  2  4  1  0  0  0  0
  3  5  1  0  0  0  0
  4  6  2  0  0  0  0
  4  7  1  0  0  0  0
  5  8  1  0  0  0  0
  6  9  1  0  0  0  0
  7 10  2  0  0  0  0
  8 11  1  0  0  0  0
  9 12  1  0  0  0  0
  9 13  2  0  0  0  0
 11 14  1  0  0  0  0
 12 15  2  0  0  0  0
 12 16  1  0  0  0  0
 14 17  1  0  0  0  0
 15 18  1  0  0  0  0
 16 19  2  0  0  0  0
 17 20  1  0  0  0  0
 17 21  1  0  0  0  0
 18 22  2  0  0  0  0
 20 23  1  0  0  0  0
 20 24  1  1  0  0  0
 21 25  1  0  0  0  0
 23 26  1  6  0  0  0
 23 27  1  0  0  0  0
 24 28  1  0  0  0  0
 25 29  1  6  0  0  0
 27 30  1  1  0  0  0
 10 13  1  0  0  0  0
 19 22  1  0  0  0  0
 25 27  1  0  0  0  0
M  END
>  <S/N>
170

>  <Compound ID>
C_184

>  <PubChem CID>
118719919

>  <Isomeric SMILES>
C1[C@@H]([C@H]([C@@H]([C@H](N1CCCCCOCC2=CC(=CC=C2)C3=CC=CC=C3)CO)O)O)O

>  <IC50 (�M)>
1.5

>  <pIC50>
5.82

$$$$
C_185
Actelion Java MolfileCreator 1.0

 31 33  0  0  1  0  0  0  0  0999 V2000
    5.1962   -0.5000   -0.0000 O   0  0  0  0  0  0  0  0  0  0  0  0
    6.0622   -0.0000   -0.0000 C   0  0  0  0  0  0  0  0  0  0  0  0
    4.3301   -0.0000   -0.0000 C   0  0  0  0  0  0  0  0  0  0  0  0
    6.9282   -0.5000   -0.0000 C   0  0  0  0  0  0  0  0  0  0  0  0
    6.0622    1.0000   -0.0000 C   0  0  0  0  0  0  0  0  0  0  0  0
    3.4641   -0.5000   -0.0000 C   0  0  0  0  0  0  0  0  0  0  0  0
    6.9282   -1.5000   -0.0000 C   0  0  0  0  0  0  0  0  0  0  0  0
    7.7942   -0.0000   -0.0000 C   0  0  0  0  0  0  0  0  0  0  0  0
    2.5981   -0.0000   -0.0000 C   0  0  0  0  0  0  0  0  0  0  0  0
    7.7942   -2.0000   -0.0000 C   0  0  0  0  0  0  0  0  0  0  0  0
    8.6603   -0.5000   -0.0000 C   0  0  0  0  0  0  0  0  0  0  0  0
    1.7321   -0.5000   -0.0000 C   0  0  0  0  0  0  0  0  0  0  0  0
    8.6603   -1.5000   -0.0000 C   0  0  0  0  0  0  0  0  0  0  0  0
    0.8660   -0.0000   -0.0000 C   0  0  0  0  0  0  0  0  0  0  0  0
    9.5263   -2.0000   -0.0000 C   0  0  0  0  0  0  0  0  0  0  0  0
    0.0000   -0.5000   -0.0000 N   0  0  0  0  0  0  0  0  0  0  0  0
    9.5263   -3.0000   -0.0000 C   0  0  0  0  0  0  0  0  0  0  0  0
   10.3923   -1.5000   -0.0000 C   0  0  0  0  0  0  0  0  0  0  0  0
   -0.8660    0.0000   -0.0000 C   0  0  0  0  0  0  0  0  0  0  0  0
   -0.0000   -1.5000   -0.0000 C   0  0  0  0  0  0  0  0  0  0  0  0
   10.3923   -3.5000   -0.0000 C   0  0  0  0  0  0  0  0  0  0  0  0
   11.2583   -2.0000   -0.0000 C   0  0  0  0  0  0  0  0  0  0  0  0
   -1.7321   -0.5000   -0.0000 C   0  0  0  0  0  0  0  0  0  0  0  0
   -0.8660    1.0000   -0.0000 C   0  0  0  0  0  0  0  0  0  0  0  0
   -0.8660   -2.0000   -0.0000 C   0  0  0  0  0  0  0  0  0  0  0  0
   11.2583   -3.0000   -0.0000 C   0  0  0  0  0  0  0  0  0  0  0  0
   -2.5981    0.0000   -0.0000 O   0  0  0  0  0  0  0  0  0  0  0  0
   -1.7321   -1.5000   -0.0000 C   0  0  0  0  0  0  0  0  0  0  0  0
   -1.7321    1.5000   -0.0000 O   0  0  0  0  0  0  0  0  0  0  0  0
   -0.8660   -3.0000   -0.0000 O   0  0  0  0  0  0  0  0  0  0  0  0
   -2.5981   -2.0000   -0.0000 O   0  0  0  0  0  0  0  0  0  0  0  0
  1  2  1  0  0  0  0
  1  3  1  0  0  0  0
  2  4  1  0  0  0  0
  2  5  1  1  0  0  0
  3  6  1  0  0  0  0
  4  7  2  0  0  0  0
  4  8  1  0  0  0  0
  6  9  1  0  0  0  0
  7 10  1  0  0  0  0
  8 11  2  0  0  0  0
  9 12  1  0  0  0  0
 10 13  2  0  0  0  0
 12 14  1  0  0  0  0
 13 15  1  0  0  0  0
 14 16  1  0  0  0  0
 15 17  2  0  0  0  0
 15 18  1  0  0  0  0
 16 19  1  0  0  0  0
 16 20  1  0  0  0  0
 17 21  1  0  0  0  0
 18 22  2  0  0  0  0
 19 23  1  0  0  0  0
 19 24  1  1  0  0  0
 20 25  1  0  0  0  0
 21 26  2  0  0  0  0
 23 27  1  6  0  0  0
 23 28  1  0  0  0  0
 24 29  1  0  0  0  0
 25 30  1  6  0  0  0
 28 31  1  1  0  0  0
 11 13  1  0  0  0  0
 22 26  1  0  0  0  0
 25 28  1  0  0  0  0
M  END
>  <S/N>
171

>  <Compound ID>
C_185

>  <PubChem CID>
118720302

>  <Isomeric SMILES>
C[C@@H](C1=CC=C(C=C1)C2=CC=CC=C2)OCCCCCN3C[C@@H]([C@H]([C@@H]([C@H]3CO)O)O)O

>  <IC50 (�M)>
2.5

>  <pIC50>
5.6

$$$$
C_187
Actelion Java MolfileCreator 1.0

 26 29  0  0  0  0  0  0  0  0999 V2000
    7.0327    2.4945   -0.0000 S   0  0  0  0  0  0  0  0  0  0  0  0
    6.9282    1.5000   -0.0000 C   0  0  0  0  0  0  0  0  0  0  0  0
    8.0109    2.7024   -0.0000 C   0  0  0  0  0  0  0  0  0  0  0  0
    7.8417    1.0933   -0.0000 N   0  0  0  0  0  0  0  0  0  0  0  0
    6.0622    1.0000   -0.0000 C   0  0  0  0  0  0  0  0  0  0  0  0
    8.5109    1.8364   -0.0000 C   0  0  0  0  0  0  0  0  0  0  0  0
    8.5109    3.5685   -0.0000 C   0  0  0  0  0  0  0  0  0  0  0  0
    5.1962    1.5000   -0.0000 C   0  0  0  0  0  0  0  0  0  0  0  0
    6.0622   -0.0000   -0.0000 C   0  0  0  0  0  0  0  0  0  0  0  0
    9.5109    1.8364   -0.0000 C   0  0  0  0  0  0  0  0  0  0  0  0
    9.5109    3.5685   -0.0000 C   0  0  0  0  0  0  0  0  0  0  0  0
    4.3301    1.0000   -0.0000 C   0  0  0  0  0  0  0  0  0  0  0  0
    5.1962   -0.5000   -0.0000 C   0  0  0  0  0  0  0  0  0  0  0  0
   10.0109    2.7024   -0.0000 C   0  0  0  0  0  0  0  0  0  0  0  0
    4.3301   -0.0000   -0.0000 C   0  0  0  0  0  0  0  0  0  0  0  0
    3.4641   -0.5000   -0.0000 C   0  0  0  0  0  0  0  0  0  0  0  0
    3.4641   -1.5000   -0.0000 O   0  0  0  0  0  0  0  0  0  0  0  0
    2.5981   -0.0000   -0.0000 N   0  0  0  0  0  0  0  0  0  0  0  0
    1.7321   -0.5000   -0.0000 N   0  0  0  0  0  0  0  0  0  0  0  0
    0.8660   -0.0000   -0.0000 C   0  0  0  0  0  0  0  0  0  0  0  0
    0.8660    1.0000   -0.0000 C   0  0  0  0  0  0  0  0  0  0  0  0
   -0.0000    1.5000   -0.0000 N   0  0  0  0  0  0  0  0  0  0  0  0
    1.7321    1.5000   -0.0000 C   0  0  0  0  0  0  0  0  0  0  0  0
   -0.0000    2.5000   -0.0000 C   0  0  0  0  0  0  0  0  0  0  0  0
    1.7321    2.5000   -0.0000 C   0  0  0  0  0  0  0  0  0  0  0  0
    0.8660    3.0000   -0.0000 C   0  0  0  0  0  0  0  0  0  0  0  0
  1  2  1  0  0  0  0
  1  3  1  0  0  0  0
  2  4  2  0  0  0  0
  2  5  1  0  0  0  0
  3  6  2  0  0  0  0
  3  7  1  0  0  0  0
  5  8  2  0  0  0  0
  5  9  1  0  0  0  0
  6 10  1  0  0  0  0
  7 11  2  0  0  0  0
  8 12  1  0  0  0  0
  9 13  2  0  0  0  0
 10 14  2  0  0  0  0
 12 15  2  0  0  0  0
 15 16  1  0  0  0  0
 16 17  2  0  0  0  0
 16 18  1  0  0  0  0
 18 19  1  0  0  0  0
 19 20  2  0  0  0  0
 20 21  1  0  0  0  0
 21 22  2  0  0  0  0
 21 23  1  0  0  0  0
 22 24  1  0  0  0  0
 23 25  2  0  0  0  0
 24 26  2  0  0  0  0
  4  6  1  0  0  0  0
 11 14  1  0  0  0  0
 13 15  1  0  0  0  0
 25 26  1  0  0  0  0
M  END
>  <S/N>
172

>  <Compound ID>
C_187

>  <PubChem CID>
118730249

>  <Isomeric SMILES>
C1=CC=C2C(=C1)N=C(S2)C3=CC=C(C=C3)C(=O)N/N=C\C4=CC=CC=N4

>  <IC50 (�M)>
10.23

>  <pIC50>
4.99

$$$$
C_188
Actelion Java MolfileCreator 1.0

 25 28  0  0  0  0  0  0  0  0999 V2000
    7.0327    2.4945   -0.0000 S   0  0  0  0  0  0  0  0  0  0  0  0
    6.9282    1.5000   -0.0000 C   0  0  0  0  0  0  0  0  0  0  0  0
    8.0109    2.7024   -0.0000 C   0  0  0  0  0  0  0  0  0  0  0  0
    7.8417    1.0933   -0.0000 N   0  0  0  0  0  0  0  0  0  0  0  0
    6.0622    1.0000   -0.0000 C   0  0  0  0  0  0  0  0  0  0  0  0
    8.5109    1.8364   -0.0000 C   0  0  0  0  0  0  0  0  0  0  0  0
    8.5109    3.5685   -0.0000 C   0  0  0  0  0  0  0  0  0  0  0  0
    5.1962    1.5000   -0.0000 C   0  0  0  0  0  0  0  0  0  0  0  0
    6.0622   -0.0000   -0.0000 C   0  0  0  0  0  0  0  0  0  0  0  0
    9.5109    1.8364   -0.0000 C   0  0  0  0  0  0  0  0  0  0  0  0
    9.5109    3.5685   -0.0000 C   0  0  0  0  0  0  0  0  0  0  0  0
    4.3301    1.0000   -0.0000 C   0  0  0  0  0  0  0  0  0  0  0  0
    5.1962   -0.5000   -0.0000 C   0  0  0  0  0  0  0  0  0  0  0  0
   10.0109    2.7024   -0.0000 C   0  0  0  0  0  0  0  0  0  0  0  0
    4.3301   -0.0000   -0.0000 C   0  0  0  0  0  0  0  0  0  0  0  0
    3.4641   -0.5000   -0.0000 C   0  0  0  0  0  0  0  0  0  0  0  0
    3.4641   -1.5000   -0.0000 O   0  0  0  0  0  0  0  0  0  0  0  0
    2.5981   -0.0000   -0.0000 N   0  0  0  0  0  0  0  0  0  0  0  0
    1.7321   -0.5000   -0.0000 N   0  0  0  0  0  0  0  0  0  0  0  0
    0.8660   -0.0000   -0.0000 C   0  0  0  0  0  0  0  0  0  0  0  0
    0.0000   -0.5000   -0.0000 C   0  0  0  0  0  0  0  0  0  0  0  0
   -0.9135   -0.0933   -0.0000 S   0  0  0  0  0  0  0  0  0  0  0  0
   -0.1045   -1.4945   -0.0000 C   0  0  0  0  0  0  0  0  0  0  0  0
   -1.5827   -0.8364   -0.0000 C   0  0  0  0  0  0  0  0  0  0  0  0
   -1.0827   -1.7024   -0.0000 C   0  0  0  0  0  0  0  0  0  0  0  0
  1  2  1  0  0  0  0
  1  3  1  0  0  0  0
  2  4  2  0  0  0  0
  2  5  1  0  0  0  0
  3  6  2  0  0  0  0
  3  7  1  0  0  0  0
  5  8  2  0  0  0  0
  5  9  1  0  0  0  0
  6 10  1  0  0  0  0
  7 11  2  0  0  0  0
  8 12  1  0  0  0  0
  9 13  2  0  0  0  0
 10 14  2  0  0  0  0
 12 15  2  0  0  0  0
 15 16  1  0  0  0  0
 16 17  2  0  0  0  0
 16 18  1  0  0  0  0
 18 19  1  0  0  0  0
 19 20  2  0  0  0  0
 20 21  1  0  0  0  0
 21 22  1  0  0  0  0
 21 23  2  0  0  0  0
 22 24  1  0  0  0  0
 23 25  1  0  0  0  0
  4  6  1  0  0  0  0
 11 14  1  0  0  0  0
 13 15  1  0  0  0  0
 24 25  2  0  0  0  0
M  END
>  <S/N>
173

>  <Compound ID>
C_188

>  <PubChem CID>
118730252

>  <Isomeric SMILES>
C1=CC=C2C(=C1)N=C(S2)C3=CC=C(C=C3)C(=O)N/N=C/C4=CC=CS4

>  <IC50 (�M)>
8.48

>  <pIC50>
5.07

$$$$
C_189
Actelion Java MolfileCreator 1.0

 25 28  0  0  0  0  0  0  0  0999 V2000
    7.0327    2.4945   -0.0000 S   0  0  0  0  0  0  0  0  0  0  0  0
    6.9282    1.5000   -0.0000 C   0  0  0  0  0  0  0  0  0  0  0  0
    8.0109    2.7024   -0.0000 C   0  0  0  0  0  0  0  0  0  0  0  0
    7.8417    1.0933   -0.0000 N   0  0  0  0  0  0  0  0  0  0  0  0
    6.0622    1.0000   -0.0000 C   0  0  0  0  0  0  0  0  0  0  0  0
    8.5109    1.8364   -0.0000 C   0  0  0  0  0  0  0  0  0  0  0  0
    8.5109    3.5685   -0.0000 C   0  0  0  0  0  0  0  0  0  0  0  0
    5.1962    1.5000   -0.0000 C   0  0  0  0  0  0  0  0  0  0  0  0
    6.0622   -0.0000   -0.0000 C   0  0  0  0  0  0  0  0  0  0  0  0
    9.5109    1.8364   -0.0000 C   0  0  0  0  0  0  0  0  0  0  0  0
    9.5109    3.5685   -0.0000 C   0  0  0  0  0  0  0  0  0  0  0  0
    4.3301    1.0000   -0.0000 C   0  0  0  0  0  0  0  0  0  0  0  0
    5.1962   -0.5000   -0.0000 C   0  0  0  0  0  0  0  0  0  0  0  0
   10.0109    2.7024   -0.0000 C   0  0  0  0  0  0  0  0  0  0  0  0
    4.3301   -0.0000   -0.0000 C   0  0  0  0  0  0  0  0  0  0  0  0
    3.4641   -0.5000   -0.0000 C   0  0  0  0  0  0  0  0  0  0  0  0
    3.4641   -1.5000   -0.0000 O   0  0  0  0  0  0  0  0  0  0  0  0
    2.5981   -0.0000   -0.0000 N   0  0  0  0  0  0  0  0  0  0  0  0
    1.7321   -0.5000   -0.0000 N   0  0  0  0  0  0  0  0  0  0  0  0
    0.8660   -0.0000   -0.0000 C   0  0  0  0  0  0  0  0  0  0  0  0
    0.8660    1.0000   -0.0000 C   0  0  0  0  0  0  0  0  0  0  0  0
    0.0570    1.5878   -0.0000 O   0  0  0  0  0  0  0  0  0  0  0  0
    1.6750    1.5878   -0.0000 C   0  0  0  0  0  0  0  0  0  0  0  0
    0.3660    2.5388   -0.0000 C   0  0  0  0  0  0  0  0  0  0  0  0
    1.3660    2.5388   -0.0000 C   0  0  0  0  0  0  0  0  0  0  0  0
  1  2  1  0  0  0  0
  1  3  1  0  0  0  0
  2  4  2  0  0  0  0
  2  5  1  0  0  0  0
  3  6  2  0  0  0  0
  3  7  1  0  0  0  0
  5  8  2  0  0  0  0
  5  9  1  0  0  0  0
  6 10  1  0  0  0  0
  7 11  2  0  0  0  0
  8 12  1  0  0  0  0
  9 13  2  0  0  0  0
 10 14  2  0  0  0  0
 12 15  2  0  0  0  0
 15 16  1  0  0  0  0
 16 17  2  0  0  0  0
 16 18  1  0  0  0  0
 18 19  1  0  0  0  0
 19 20  2  0  0  0  0
 20 21  1  0  0  0  0
 21 22  1  0  0  0  0
 21 23  2  0  0  0  0
 22 24  1  0  0  0  0
 23 25  1  0  0  0  0
  4  6  1  0  0  0  0
 11 14  1  0  0  0  0
 13 15  1  0  0  0  0
 24 25  2  0  0  0  0
M  END
>  <S/N>
174

>  <Compound ID>
C_189

>  <PubChem CID>
118730256

>  <Isomeric SMILES>
C1=CC=C2C(=C1)N=C(S2)C3=CC=C(C=C3)C(=O)N/N=C\C4=CC=CO4

>  <IC50 (�M)>
12.75

>  <pIC50>
4.89

$$$$
C_190
Actelion Java MolfileCreator 1.0

 29 32  0  0  0  0  0  0  0  0999 V2000
    7.0327    2.4945   -0.0000 S   0  0  0  0  0  0  0  0  0  0  0  0
    6.9282    1.5000   -0.0000 C   0  0  0  0  0  0  0  0  0  0  0  0
    8.0109    2.7024   -0.0000 C   0  0  0  0  0  0  0  0  0  0  0  0
    7.8417    1.0933   -0.0000 N   0  0  0  0  0  0  0  0  0  0  0  0
    6.0622    1.0000   -0.0000 C   0  0  0  0  0  0  0  0  0  0  0  0
    8.5109    1.8364   -0.0000 C   0  0  0  0  0  0  0  0  0  0  0  0
    8.5109    3.5685   -0.0000 C   0  0  0  0  0  0  0  0  0  0  0  0
    5.1962    1.5000   -0.0000 C   0  0  0  0  0  0  0  0  0  0  0  0
    6.0622   -0.0000   -0.0000 C   0  0  0  0  0  0  0  0  0  0  0  0
    9.5109    1.8364   -0.0000 C   0  0  0  0  0  0  0  0  0  0  0  0
    9.5109    3.5685   -0.0000 C   0  0  0  0  0  0  0  0  0  0  0  0
    4.3301    1.0000   -0.0000 C   0  0  0  0  0  0  0  0  0  0  0  0
    5.1962   -0.5000   -0.0000 C   0  0  0  0  0  0  0  0  0  0  0  0
   10.0109    2.7024   -0.0000 C   0  0  0  0  0  0  0  0  0  0  0  0
    4.3301   -0.0000   -0.0000 C   0  0  0  0  0  0  0  0  0  0  0  0
    3.4641   -0.5000   -0.0000 C   0  0  0  0  0  0  0  0  0  0  0  0
    3.4641   -1.5000   -0.0000 O   0  0  0  0  0  0  0  0  0  0  0  0
    2.5981   -0.0000   -0.0000 N   0  0  0  0  0  0  0  0  0  0  0  0
    1.7321   -0.5000   -0.0000 N   0  0  0  0  0  0  0  0  0  0  0  0
    0.8660   -0.0000   -0.0000 C   0  0  0  0  0  0  0  0  0  0  0  0
    0.0000   -0.5000   -0.0000 C   0  0  0  0  0  0  0  0  0  0  0  0
   -0.8660    0.0000   -0.0000 C   0  0  0  0  0  0  0  0  0  0  0  0
   -0.0000   -1.5000   -0.0000 C   0  0  0  0  0  0  0  0  0  0  0  0
   -1.7321   -0.5000   -0.0000 C   0  0  0  0  0  0  0  0  0  0  0  0
   -0.8660   -2.0000   -0.0000 C   0  0  0  0  0  0  0  0  0  0  0  0
   -1.7321   -1.5000   -0.0000 C   0  0  0  0  0  0  0  0  0  0  0  0
   -2.5981   -2.0000   -0.0000 N   0  0  0  0  0  0  0  0  0  0  0  0
   -3.4641   -1.5000   -0.0000 O   0  0  0  0  0  0  0  0  0  0  0  0
   -2.5981   -3.0000   -0.0000 O   0  0  0  0  0  0  0  0  0  0  0  0
  1  2  1  0  0  0  0
  1  3  1  0  0  0  0
  2  4  2  0  0  0  0
  2  5  1  0  0  0  0
  3  6  2  0  0  0  0
  3  7  1  0  0  0  0
  5  8  2  0  0  0  0
  5  9  1  0  0  0  0
  6 10  1  0  0  0  0
  7 11  2  0  0  0  0
  8 12  1  0  0  0  0
  9 13  2  0  0  0  0
 10 14  2  0  0  0  0
 12 15  2  0  0  0  0
 15 16  1  0  0  0  0
 16 17  2  0  0  0  0
 16 18  1  0  0  0  0
 18 19  1  0  0  0  0
 19 20  2  0  0  0  0
 20 21  1  0  0  0  0
 21 22  2  0  0  0  0
 21 23  1  0  0  0  0
 22 24  1  0  0  0  0
 23 25  2  0  0  0  0
 24 26  2  0  0  0  0
 26 27  1  0  0  0  0
 27 28  2  0  0  0  0
 27 29  1  0  0  0  0
  4  6  1  0  0  0  0
 11 14  1  0  0  0  0
 13 15  1  0  0  0  0
 25 26  1  0  0  0  0
M  CHG  2  27   1  29  -1
M  END
>  <S/N>
175

>  <Compound ID>
C_190

>  <PubChem CID>
118730261

>  <Isomeric SMILES>
C1=CC=C2C(=C1)N=C(S2)C3=CC=C(C=C3)C(=O)N/N=C/C4=CC=C(C=C4)[N+](=O)[O-]

>  <IC50 (�M)>
26.38

>  <pIC50>
4.58

$$$$
C_191
Actelion Java MolfileCreator 1.0

 27 30  0  0  0  0  0  0  0  0999 V2000
    7.0327    2.4945   -0.0000 S   0  0  0  0  0  0  0  0  0  0  0  0
    6.9282    1.5000   -0.0000 C   0  0  0  0  0  0  0  0  0  0  0  0
    8.0109    2.7024   -0.0000 C   0  0  0  0  0  0  0  0  0  0  0  0
    7.8417    1.0933   -0.0000 N   0  0  0  0  0  0  0  0  0  0  0  0
    6.0622    1.0000   -0.0000 C   0  0  0  0  0  0  0  0  0  0  0  0
    8.5109    1.8364   -0.0000 C   0  0  0  0  0  0  0  0  0  0  0  0
    8.5109    3.5685   -0.0000 C   0  0  0  0  0  0  0  0  0  0  0  0
    5.1962    1.5000   -0.0000 C   0  0  0  0  0  0  0  0  0  0  0  0
    6.0622   -0.0000   -0.0000 C   0  0  0  0  0  0  0  0  0  0  0  0
    9.5109    1.8364   -0.0000 C   0  0  0  0  0  0  0  0  0  0  0  0
    9.5109    3.5685   -0.0000 C   0  0  0  0  0  0  0  0  0  0  0  0
    4.3301    1.0000   -0.0000 C   0  0  0  0  0  0  0  0  0  0  0  0
    5.1962   -0.5000   -0.0000 C   0  0  0  0  0  0  0  0  0  0  0  0
   10.0109    2.7024   -0.0000 C   0  0  0  0  0  0  0  0  0  0  0  0
    4.3301   -0.0000   -0.0000 C   0  0  0  0  0  0  0  0  0  0  0  0
    3.4641   -0.5000   -0.0000 C   0  0  0  0  0  0  0  0  0  0  0  0
    3.4641   -1.5000   -0.0000 O   0  0  0  0  0  0  0  0  0  0  0  0
    2.5981   -0.0000   -0.0000 N   0  0  0  0  0  0  0  0  0  0  0  0
    1.7321   -0.5000   -0.0000 N   0  0  0  0  0  0  0  0  0  0  0  0
    0.8660   -0.0000   -0.0000 C   0  0  0  0  0  0  0  0  0  0  0  0
    0.0000   -0.5000   -0.0000 C   0  0  0  0  0  0  0  0  0  0  0  0
   -0.8660    0.0000   -0.0000 C   0  0  0  0  0  0  0  0  0  0  0  0
   -0.0000   -1.5000   -0.0000 C   0  0  0  0  0  0  0  0  0  0  0  0
   -1.7321   -0.5000   -0.0000 C   0  0  0  0  0  0  0  0  0  0  0  0
   -0.8660   -2.0000   -0.0000 C   0  0  0  0  0  0  0  0  0  0  0  0
   -1.7321   -1.5000   -0.0000 C   0  0  0  0  0  0  0  0  0  0  0  0
   -2.5981   -2.0000   -0.0000 F   0  0  0  0  0  0  0  0  0  0  0  0
  1  2  1  0  0  0  0
  1  3  1  0  0  0  0
  2  4  2  0  0  0  0
  2  5  1  0  0  0  0
  3  6  2  0  0  0  0
  3  7  1  0  0  0  0
  5  8  2  0  0  0  0
  5  9  1  0  0  0  0
  6 10  1  0  0  0  0
  7 11  2  0  0  0  0
  8 12  1  0  0  0  0
  9 13  2  0  0  0  0
 10 14  2  0  0  0  0
 12 15  2  0  0  0  0
 15 16  1  0  0  0  0
 16 17  2  0  0  0  0
 16 18  1  0  0  0  0
 18 19  1  0  0  0  0
 19 20  2  0  0  0  0
 20 21  1  0  0  0  0
 21 22  2  0  0  0  0
 21 23  1  0  0  0  0
 22 24  1  0  0  0  0
 23 25  2  0  0  0  0
 24 26  2  0  0  0  0
 26 27  1  0  0  0  0
  4  6  1  0  0  0  0
 11 14  1  0  0  0  0
 13 15  1  0  0  0  0
 25 26  1  0  0  0  0
M  END
>  <S/N>
176

>  <Compound ID>
C_191

>  <PubChem CID>
118730263

>  <Isomeric SMILES>
C1=CC=C2C(=C1)N=C(S2)C3=CC=C(C=C3)C(=O)N/N=C/C4=CC=C(C=C4)F

>  <IC50 (�M)>
7.12

>  <pIC50>
5.15

$$$$
C_192
Actelion Java MolfileCreator 1.0

 30 33  0  0  0  0  0  0  0  0999 V2000
    7.0327    2.4945   -0.0000 S   0  0  0  0  0  0  0  0  0  0  0  0
    6.9282    1.5000   -0.0000 C   0  0  0  0  0  0  0  0  0  0  0  0
    8.0109    2.7024   -0.0000 C   0  0  0  0  0  0  0  0  0  0  0  0
    7.8417    1.0933   -0.0000 N   0  0  0  0  0  0  0  0  0  0  0  0
    6.0622    1.0000   -0.0000 C   0  0  0  0  0  0  0  0  0  0  0  0
    8.5109    1.8364   -0.0000 C   0  0  0  0  0  0  0  0  0  0  0  0
    8.5109    3.5685   -0.0000 C   0  0  0  0  0  0  0  0  0  0  0  0
    5.1962    1.5000   -0.0000 C   0  0  0  0  0  0  0  0  0  0  0  0
    6.0622   -0.0000   -0.0000 C   0  0  0  0  0  0  0  0  0  0  0  0
    9.5109    1.8364   -0.0000 C   0  0  0  0  0  0  0  0  0  0  0  0
    9.5109    3.5685   -0.0000 C   0  0  0  0  0  0  0  0  0  0  0  0
    4.3301    1.0000   -0.0000 C   0  0  0  0  0  0  0  0  0  0  0  0
    5.1962   -0.5000   -0.0000 C   0  0  0  0  0  0  0  0  0  0  0  0
   10.0109    2.7024   -0.0000 C   0  0  0  0  0  0  0  0  0  0  0  0
    4.3301   -0.0000   -0.0000 C   0  0  0  0  0  0  0  0  0  0  0  0
    3.4641   -0.5000   -0.0000 C   0  0  0  0  0  0  0  0  0  0  0  0
    3.4641   -1.5000   -0.0000 O   0  0  0  0  0  0  0  0  0  0  0  0
    2.5981   -0.0000   -0.0000 N   0  0  0  0  0  0  0  0  0  0  0  0
    1.7321   -0.5000   -0.0000 N   0  0  0  0  0  0  0  0  0  0  0  0
    0.8660   -0.0000   -0.0000 C   0  0  0  0  0  0  0  0  0  0  0  0
    0.0000   -0.5000   -0.0000 C   0  0  0  0  0  0  0  0  0  0  0  0
   -0.8660    0.0000   -0.0000 C   0  0  0  0  0  0  0  0  0  0  0  0
   -0.0000   -1.5000   -0.0000 C   0  0  0  0  0  0  0  0  0  0  0  0
   -1.7321   -0.5000   -0.0000 C   0  0  0  0  0  0  0  0  0  0  0  0
   -0.8660   -2.0000   -0.0000 C   0  0  0  0  0  0  0  0  0  0  0  0
   -2.5981    0.0000   -0.0000 O   0  0  0  0  0  0  0  0  0  0  0  0
   -1.7321   -1.5000   -0.0000 C   0  0  0  0  0  0  0  0  0  0  0  0
   -0.8660   -3.0000   -0.0000 O   0  0  0  0  0  0  0  0  0  0  0  0
   -3.4641   -0.5000   -0.0000 C   0  0  0  0  0  0  0  0  0  0  0  0
   -0.0000   -3.5000   -0.0000 C   0  0  0  0  0  0  0  0  0  0  0  0
  1  2  1  0  0  0  0
  1  3  1  0  0  0  0
  2  4  2  0  0  0  0
  2  5  1  0  0  0  0
  3  6  2  0  0  0  0
  3  7  1  0  0  0  0
  5  8  2  0  0  0  0
  5  9  1  0  0  0  0
  6 10  1  0  0  0  0
  7 11  2  0  0  0  0
  8 12  1  0  0  0  0
  9 13  2  0  0  0  0
 10 14  2  0  0  0  0
 12 15  2  0  0  0  0
 15 16  1  0  0  0  0
 16 17  2  0  0  0  0
 16 18  1  0  0  0  0
 18 19  1  0  0  0  0
 19 20  2  0  0  0  0
 20 21  1  0  0  0  0
 21 22  2  0  0  0  0
 21 23  1  0  0  0  0
 22 24  1  0  0  0  0
 23 25  2  0  0  0  0
 24 26  1  0  0  0  0
 24 27  2  0  0  0  0
 25 28  1  0  0  0  0
 26 29  1  0  0  0  0
 28 30  1  0  0  0  0
  4  6  1  0  0  0  0
 11 14  1  0  0  0  0
 13 15  1  0  0  0  0
 25 27  1  0  0  0  0
M  END
>  <S/N>
177

>  <Compound ID>
C_192

>  <PubChem CID>
118730264

>  <Isomeric SMILES>
COC1=CC(=CC(=C1)/C=N/NC(=O)C2=CC=C(C=C2)C3=NC4=CC=CC=C4S3)OC

>  <IC50 (�M)>
16.17

>  <pIC50>
4.79

$$$$
C_193
Actelion Java MolfileCreator 1.0

 26 29  0  0  0  0  0  0  0  0999 V2000
    7.0327    2.4945   -0.0000 S   0  0  0  0  0  0  0  0  0  0  0  0
    6.9282    1.5000   -0.0000 C   0  0  0  0  0  0  0  0  0  0  0  0
    8.0109    2.7024   -0.0000 C   0  0  0  0  0  0  0  0  0  0  0  0
    7.8417    1.0933   -0.0000 N   0  0  0  0  0  0  0  0  0  0  0  0
    6.0622    1.0000   -0.0000 C   0  0  0  0  0  0  0  0  0  0  0  0
    8.5109    1.8364   -0.0000 C   0  0  0  0  0  0  0  0  0  0  0  0
    8.5109    3.5685   -0.0000 C   0  0  0  0  0  0  0  0  0  0  0  0
    5.1962    1.5000   -0.0000 C   0  0  0  0  0  0  0  0  0  0  0  0
    6.0622   -0.0000   -0.0000 C   0  0  0  0  0  0  0  0  0  0  0  0
    9.5109    1.8364   -0.0000 C   0  0  0  0  0  0  0  0  0  0  0  0
    9.5109    3.5685   -0.0000 C   0  0  0  0  0  0  0  0  0  0  0  0
    4.3301    1.0000   -0.0000 C   0  0  0  0  0  0  0  0  0  0  0  0
    5.1962   -0.5000   -0.0000 C   0  0  0  0  0  0  0  0  0  0  0  0
   10.0109    2.7024   -0.0000 C   0  0  0  0  0  0  0  0  0  0  0  0
    4.3301   -0.0000   -0.0000 C   0  0  0  0  0  0  0  0  0  0  0  0
    3.4641   -0.5000   -0.0000 C   0  0  0  0  0  0  0  0  0  0  0  0
    3.4641   -1.5000   -0.0000 O   0  0  0  0  0  0  0  0  0  0  0  0
    2.5981   -0.0000   -0.0000 N   0  0  0  0  0  0  0  0  0  0  0  0
    1.7321   -0.5000   -0.0000 N   0  0  0  0  0  0  0  0  0  0  0  0
    0.8660   -0.0000   -0.0000 C   0  0  0  0  0  0  0  0  0  0  0  0
    0.0000   -0.5000   -0.0000 C   0  0  0  0  0  0  0  0  0  0  0  0
   -0.8660    0.0000   -0.0000 C   0  0  0  0  0  0  0  0  0  0  0  0
   -0.0000   -1.5000   -0.0000 C   0  0  0  0  0  0  0  0  0  0  0  0
   -1.7321   -0.5000   -0.0000 C   0  0  0  0  0  0  0  0  0  0  0  0
   -0.8660   -2.0000   -0.0000 C   0  0  0  0  0  0  0  0  0  0  0  0
   -1.7321   -1.5000   -0.0000 C   0  0  0  0  0  0  0  0  0  0  0  0
  1  2  1  0  0  0  0
  1  3  1  0  0  0  0
  2  4  2  0  0  0  0
  2  5  1  0  0  0  0
  3  6  2  0  0  0  0
  3  7  1  0  0  0  0
  5  8  2  0  0  0  0
  5  9  1  0  0  0  0
  6 10  1  0  0  0  0
  7 11  2  0  0  0  0
  8 12  1  0  0  0  0
  9 13  2  0  0  0  0
 10 14  2  0  0  0  0
 12 15  2  0  0  0  0
 15 16  1  0  0  0  0
 16 17  2  0  0  0  0
 16 18  1  0  0  0  0
 18 19  1  0  0  0  0
 19 20  2  0  0  0  0
 20 21  1  0  0  0  0
 21 22  2  0  0  0  0
 21 23  1  0  0  0  0
 22 24  1  0  0  0  0
 23 25  2  0  0  0  0
 24 26  2  0  0  0  0
  4  6  1  0  0  0  0
 11 14  1  0  0  0  0
 13 15  1  0  0  0  0
 25 26  1  0  0  0  0
M  END
>  <S/N>
178

>  <Compound ID>
C_193

>  <PubChem CID>
118730265

>  <Isomeric SMILES>
C1=CC=C(C=C1)/C=N/NC(=O)C2=CC=C(C=C2)C3=NC4=CC=CC=C4S3

>  <IC50 (�M)>
8.05

>  <pIC50>
5.09

$$$$
C_194
Actelion Java MolfileCreator 1.0

 28 31  0  0  0  0  0  0  0  0999 V2000
    6.9282   -0.5000   -0.0000 Br  0  0  0  0  0  0  0  0  0  0  0  0
    6.0622   -0.0000   -0.0000 C   0  0  0  0  0  0  0  0  0  0  0  0
    6.0622    1.0000   -0.0000 C   0  0  0  0  0  0  0  0  0  0  0  0
    5.1962   -0.5000   -0.0000 C   0  0  0  0  0  0  0  0  0  0  0  0
    6.9282    1.5000   -0.0000 F   0  0  0  0  0  0  0  0  0  0  0  0
    5.1962    1.5000   -0.0000 C   0  0  0  0  0  0  0  0  0  0  0  0
    4.3301   -0.0000   -0.0000 C   0  0  0  0  0  0  0  0  0  0  0  0
    4.3301    1.0000   -0.0000 C   0  0  0  0  0  0  0  0  0  0  0  0
    3.4641   -0.5000   -0.0000 C   0  0  0  0  0  0  0  0  0  0  0  0
    2.5981   -0.0000   -0.0000 N   0  0  0  0  0  0  0  0  0  0  0  0
    1.7321   -0.5000   -0.0000 N   0  0  0  0  0  0  0  0  0  0  0  0
    0.8660   -0.0000   -0.0000 C   0  0  0  0  0  0  0  0  0  0  0  0
    0.8660    1.0000   -0.0000 O   0  0  0  0  0  0  0  0  0  0  0  0
    0.0000   -0.5000   -0.0000 C   0  0  0  0  0  0  0  0  0  0  0  0
   -0.8660    0.0000   -0.0000 C   0  0  0  0  0  0  0  0  0  0  0  0
   -0.0000   -1.5000   -0.0000 C   0  0  0  0  0  0  0  0  0  0  0  0
   -1.7321   -0.5000   -0.0000 C   0  0  0  0  0  0  0  0  0  0  0  0
   -0.8660   -2.0000   -0.0000 C   0  0  0  0  0  0  0  0  0  0  0  0
   -1.7321   -1.5000   -0.0000 C   0  0  0  0  0  0  0  0  0  0  0  0
   -2.5981   -2.0000   -0.0000 C   0  0  0  0  0  0  0  0  0  0  0  0
   -3.5116   -1.5933   -0.0000 S   0  0  0  0  0  0  0  0  0  0  0  0
   -2.7026   -2.9945   -0.0000 N   0  0  0  0  0  0  0  0  0  0  0  0
   -4.1808   -2.3364   -0.0000 C   0  0  0  0  0  0  0  0  0  0  0  0
   -3.6808   -3.2024   -0.0000 C   0  0  0  0  0  0  0  0  0  0  0  0
   -5.1808   -2.3364   -0.0000 C   0  0  0  0  0  0  0  0  0  0  0  0
   -4.1808   -4.0685   -0.0000 C   0  0  0  0  0  0  0  0  0  0  0  0
   -5.6808   -3.2024   -0.0000 C   0  0  0  0  0  0  0  0  0  0  0  0
   -5.1808   -4.0685   -0.0000 C   0  0  0  0  0  0  0  0  0  0  0  0
  1  2  1  0  0  0  0
  2  3  2  0  0  0  0
  2  4  1  0  0  0  0
  3  5  1  0  0  0  0
  3  6  1  0  0  0  0
  4  7  2  0  0  0  0
  6  8  2  0  0  0  0
  7  9  1  0  0  0  0
  9 10  2  0  0  0  0
 10 11  1  0  0  0  0
 11 12  1  0  0  0  0
 12 13  2  0  0  0  0
 12 14  1  0  0  0  0
 14 15  2  0  0  0  0
 14 16  1  0  0  0  0
 15 17  1  0  0  0  0
 16 18  2  0  0  0  0
 17 19  2  0  0  0  0
 19 20  1  0  0  0  0
 20 21  1  0  0  0  0
 20 22  2  0  0  0  0
 21 23  1  0  0  0  0
 22 24  1  0  0  0  0
 23 25  2  0  0  0  0
 24 26  2  0  0  0  0
 25 27  1  0  0  0  0
 26 28  1  0  0  0  0
  7  8  1  0  0  0  0
 18 19  1  0  0  0  0
 23 24  1  0  0  0  0
 27 28  2  0  0  0  0
M  END
>  <S/N>
179

>  <Compound ID>
C_194

>  <PubChem CID>
118730266

>  <Isomeric SMILES>
C1=CC=C2C(=C1)N=C(S2)C3=CC=C(C=C3)C(=O)N/N=C/C4=CC(=C(C=C4)F)Br

>  <IC50 (�M)>
28.02

>  <pIC50>
4.55

$$$$
C_195
Actelion Java MolfileCreator 1.0

 28 31  0  0  0  0  0  0  0  0999 V2000
    7.0327    2.4945   -0.0000 S   0  0  0  0  0  0  0  0  0  0  0  0
    6.9282    1.5000   -0.0000 C   0  0  0  0  0  0  0  0  0  0  0  0
    8.0109    2.7024   -0.0000 C   0  0  0  0  0  0  0  0  0  0  0  0
    7.8417    1.0933   -0.0000 N   0  0  0  0  0  0  0  0  0  0  0  0
    6.0622    1.0000   -0.0000 C   0  0  0  0  0  0  0  0  0  0  0  0
    8.5109    1.8364   -0.0000 C   0  0  0  0  0  0  0  0  0  0  0  0
    8.5109    3.5685   -0.0000 C   0  0  0  0  0  0  0  0  0  0  0  0
    5.1962    1.5000   -0.0000 C   0  0  0  0  0  0  0  0  0  0  0  0
    6.0622   -0.0000   -0.0000 C   0  0  0  0  0  0  0  0  0  0  0  0
    9.5109    1.8364   -0.0000 C   0  0  0  0  0  0  0  0  0  0  0  0
    9.5109    3.5685   -0.0000 C   0  0  0  0  0  0  0  0  0  0  0  0
    4.3301    1.0000   -0.0000 C   0  0  0  0  0  0  0  0  0  0  0  0
    5.1962   -0.5000   -0.0000 C   0  0  0  0  0  0  0  0  0  0  0  0
   10.0109    2.7024   -0.0000 C   0  0  0  0  0  0  0  0  0  0  0  0
    4.3301   -0.0000   -0.0000 C   0  0  0  0  0  0  0  0  0  0  0  0
    3.4641   -0.5000   -0.0000 C   0  0  0  0  0  0  0  0  0  0  0  0
    3.4641   -1.5000   -0.0000 O   0  0  0  0  0  0  0  0  0  0  0  0
    2.5981   -0.0000   -0.0000 N   0  0  0  0  0  0  0  0  0  0  0  0
    1.7321   -0.5000   -0.0000 N   0  0  0  0  0  0  0  0  0  0  0  0
    0.8660   -0.0000   -0.0000 C   0  0  0  0  0  0  0  0  0  0  0  0
    0.0000   -0.5000   -0.0000 C   0  0  0  0  0  0  0  0  0  0  0  0
   -0.8660    0.0000   -0.0000 C   0  0  0  0  0  0  0  0  0  0  0  0
   -0.0000   -1.5000   -0.0000 C   0  0  0  0  0  0  0  0  0  0  0  0
   -1.7321   -0.5000   -0.0000 C   0  0  0  0  0  0  0  0  0  0  0  0
   -0.8660   -2.0000   -0.0000 C   0  0  0  0  0  0  0  0  0  0  0  0
   -1.7321   -1.5000   -0.0000 C   0  0  0  0  0  0  0  0  0  0  0  0
   -2.5981   -2.0000   -0.0000 O   0  0  0  0  0  0  0  0  0  0  0  0
   -2.5981   -3.0000   -0.0000 C   0  0  0  0  0  0  0  0  0  0  0  0
  1  2  1  0  0  0  0
  1  3  1  0  0  0  0
  2  4  2  0  0  0  0
  2  5  1  0  0  0  0
  3  6  2  0  0  0  0
  3  7  1  0  0  0  0
  5  8  2  0  0  0  0
  5  9  1  0  0  0  0
  6 10  1  0  0  0  0
  7 11  2  0  0  0  0
  8 12  1  0  0  0  0
  9 13  2  0  0  0  0
 10 14  2  0  0  0  0
 12 15  2  0  0  0  0
 15 16  1  0  0  0  0
 16 17  2  0  0  0  0
 16 18  1  0  0  0  0
 18 19  1  0  0  0  0
 19 20  2  0  0  0  0
 20 21  1  0  0  0  0
 21 22  2  0  0  0  0
 21 23  1  0  0  0  0
 22 24  1  0  0  0  0
 23 25  2  0  0  0  0
 24 26  2  0  0  0  0
 26 27  1  0  0  0  0
 27 28  1  0  0  0  0
  4  6  1  0  0  0  0
 11 14  1  0  0  0  0
 13 15  1  0  0  0  0
 25 26  1  0  0  0  0
M  END
>  <S/N>
180

>  <Compound ID>
C_195

>  <PubChem CID>
118730267

>  <Isomeric SMILES>
COC1=CC=C(C=C1)/C=N/NC(=O)C2=CC=C(C=C2)C3=NC4=CC=CC=C4S3

>  <IC50 (�M)>
18.33

>  <pIC50>
4.74

$$$$
C_196
Actelion Java MolfileCreator 1.0

 27 30  0  0  0  0  0  0  0  0999 V2000
    6.9282    1.5000   -0.0000 Cl  0  0  0  0  0  0  0  0  0  0  0  0
    6.0622    1.0000   -0.0000 C   0  0  0  0  0  0  0  0  0  0  0  0
    5.1962    1.5000   -0.0000 C   0  0  0  0  0  0  0  0  0  0  0  0
    6.0622   -0.0000   -0.0000 C   0  0  0  0  0  0  0  0  0  0  0  0
    4.3301    1.0000   -0.0000 C   0  0  0  0  0  0  0  0  0  0  0  0
    5.1962   -0.5000   -0.0000 C   0  0  0  0  0  0  0  0  0  0  0  0
    4.3301   -0.0000   -0.0000 C   0  0  0  0  0  0  0  0  0  0  0  0
    3.4641   -0.5000   -0.0000 C   0  0  0  0  0  0  0  0  0  0  0  0
    2.5981   -0.0000   -0.0000 N   0  0  0  0  0  0  0  0  0  0  0  0
    1.7321   -0.5000   -0.0000 N   0  0  0  0  0  0  0  0  0  0  0  0
    0.8660   -0.0000   -0.0000 C   0  0  0  0  0  0  0  0  0  0  0  0
    0.8660    1.0000   -0.0000 O   0  0  0  0  0  0  0  0  0  0  0  0
    0.0000   -0.5000   -0.0000 C   0  0  0  0  0  0  0  0  0  0  0  0
   -0.8660    0.0000   -0.0000 C   0  0  0  0  0  0  0  0  0  0  0  0
   -0.0000   -1.5000   -0.0000 C   0  0  0  0  0  0  0  0  0  0  0  0
   -1.7321   -0.5000   -0.0000 C   0  0  0  0  0  0  0  0  0  0  0  0
   -0.8660   -2.0000   -0.0000 C   0  0  0  0  0  0  0  0  0  0  0  0
   -1.7321   -1.5000   -0.0000 C   0  0  0  0  0  0  0  0  0  0  0  0
   -2.5981   -2.0000   -0.0000 C   0  0  0  0  0  0  0  0  0  0  0  0
   -3.5116   -1.5933   -0.0000 S   0  0  0  0  0  0  0  0  0  0  0  0
   -2.7026   -2.9945   -0.0000 N   0  0  0  0  0  0  0  0  0  0  0  0
   -4.1808   -2.3364   -0.0000 C   0  0  0  0  0  0  0  0  0  0  0  0
   -3.6808   -3.2024   -0.0000 C   0  0  0  0  0  0  0  0  0  0  0  0
   -5.1808   -2.3364   -0.0000 C   0  0  0  0  0  0  0  0  0  0  0  0
   -4.1808   -4.0685   -0.0000 C   0  0  0  0  0  0  0  0  0  0  0  0
   -5.6808   -3.2024   -0.0000 C   0  0  0  0  0  0  0  0  0  0  0  0
   -5.1808   -4.0685   -0.0000 C   0  0  0  0  0  0  0  0  0  0  0  0
  1  2  1  0  0  0  0
  2  3  2  0  0  0  0
  2  4  1  0  0  0  0
  3  5  1  0  0  0  0
  4  6  2  0  0  0  0
  5  7  2  0  0  0  0
  7  8  1  0  0  0  0
  8  9  2  0  0  0  0
  9 10  1  0  0  0  0
 10 11  1  0  0  0  0
 11 12  2  0  0  0  0
 11 13  1  0  0  0  0
 13 14  2  0  0  0  0
 13 15  1  0  0  0  0
 14 16  1  0  0  0  0
 15 17  2  0  0  0  0
 16 18  2  0  0  0  0
 18 19  1  0  0  0  0
 19 20  1  0  0  0  0
 19 21  2  0  0  0  0
 20 22  1  0  0  0  0
 21 23  1  0  0  0  0
 22 24  2  0  0  0  0
 23 25  2  0  0  0  0
 24 26  1  0  0  0  0
 25 27  1  0  0  0  0
  6  7  1  0  0  0  0
 17 18  1  0  0  0  0
 22 23  1  0  0  0  0
 26 27  2  0  0  0  0
M  END
>  <S/N>
181

>  <Compound ID>
C_196

>  <PubChem CID>
118730270

>  <Isomeric SMILES>
C1=CC=C2C(=C1)N=C(S2)C3=CC=C(C=C3)C(=O)N/N=C/C4=CC=C(C=C4)Cl

>  <IC50 (�M)>
5.31

>  <pIC50>
5.27

$$$$
C_197
Actelion Java MolfileCreator 1.0

 28 31  0  0  0  0  0  0  0  0999 V2000
    7.0327    2.4945   -0.0000 S   0  0  0  0  0  0  0  0  0  0  0  0
    6.9282    1.5000   -0.0000 C   0  0  0  0  0  0  0  0  0  0  0  0
    8.0109    2.7024   -0.0000 C   0  0  0  0  0  0  0  0  0  0  0  0
    7.8417    1.0933   -0.0000 N   0  0  0  0  0  0  0  0  0  0  0  0
    6.0622    1.0000   -0.0000 C   0  0  0  0  0  0  0  0  0  0  0  0
    8.5109    1.8364   -0.0000 C   0  0  0  0  0  0  0  0  0  0  0  0
    8.5109    3.5685   -0.0000 C   0  0  0  0  0  0  0  0  0  0  0  0
    5.1962    1.5000   -0.0000 C   0  0  0  0  0  0  0  0  0  0  0  0
    6.0622   -0.0000   -0.0000 C   0  0  0  0  0  0  0  0  0  0  0  0
    9.5109    1.8364   -0.0000 C   0  0  0  0  0  0  0  0  0  0  0  0
    9.5109    3.5685   -0.0000 C   0  0  0  0  0  0  0  0  0  0  0  0
    4.3301    1.0000   -0.0000 C   0  0  0  0  0  0  0  0  0  0  0  0
    5.1962   -0.5000   -0.0000 C   0  0  0  0  0  0  0  0  0  0  0  0
   10.0109    2.7024   -0.0000 C   0  0  0  0  0  0  0  0  0  0  0  0
    4.3301   -0.0000   -0.0000 C   0  0  0  0  0  0  0  0  0  0  0  0
    3.4641   -0.5000   -0.0000 C   0  0  0  0  0  0  0  0  0  0  0  0
    3.4641   -1.5000   -0.0000 O   0  0  0  0  0  0  0  0  0  0  0  0
    2.5981   -0.0000   -0.0000 N   0  0  0  0  0  0  0  0  0  0  0  0
    1.7321   -0.5000   -0.0000 N   0  0  0  0  0  0  0  0  0  0  0  0
    0.8660   -0.0000   -0.0000 C   0  0  0  0  0  0  0  0  0  0  0  0
    0.0000   -0.5000   -0.0000 C   0  0  0  0  0  0  0  0  0  0  0  0
   -0.8660    0.0000   -0.0000 C   0  0  0  0  0  0  0  0  0  0  0  0
   -0.0000   -1.5000   -0.0000 C   0  0  0  0  0  0  0  0  0  0  0  0
   -1.7321   -0.5000   -0.0000 C   0  0  0  0  0  0  0  0  0  0  0  0
   -0.8660   -2.0000   -0.0000 C   0  0  0  0  0  0  0  0  0  0  0  0
   -2.5981    0.0000   -0.0000 O   0  0  0  0  0  0  0  0  0  0  0  0
   -1.7321   -1.5000   -0.0000 C   0  0  0  0  0  0  0  0  0  0  0  0
   -3.4641   -0.5000   -0.0000 C   0  0  0  0  0  0  0  0  0  0  0  0
  1  2  1  0  0  0  0
  1  3  1  0  0  0  0
  2  4  2  0  0  0  0
  2  5  1  0  0  0  0
  3  6  2  0  0  0  0
  3  7  1  0  0  0  0
  5  8  2  0  0  0  0
  5  9  1  0  0  0  0
  6 10  1  0  0  0  0
  7 11  2  0  0  0  0
  8 12  1  0  0  0  0
  9 13  2  0  0  0  0
 10 14  2  0  0  0  0
 12 15  2  0  0  0  0
 15 16  1  0  0  0  0
 16 17  2  0  0  0  0
 16 18  1  0  0  0  0
 18 19  1  0  0  0  0
 19 20  2  0  0  0  0
 20 21  1  0  0  0  0
 21 22  2  0  0  0  0
 21 23  1  0  0  0  0
 22 24  1  0  0  0  0
 23 25  2  0  0  0  0
 24 26  1  0  0  0  0
 24 27  2  0  0  0  0
 26 28  1  0  0  0  0
  4  6  1  0  0  0  0
 11 14  1  0  0  0  0
 13 15  1  0  0  0  0
 25 27  1  0  0  0  0
M  END
>  <S/N>
182

>  <Compound ID>
C_197

>  <PubChem CID>
118730271

>  <Isomeric SMILES>
COC1=CC=CC(=C1)/C=N/NC(=O)C2=CC=C(C=C2)C3=NC4=CC=CC=C4S3

>  <IC50 (�M)>
11.09

>  <pIC50>
4.96

$$$$
C_198
Actelion Java MolfileCreator 1.0

 27 30  0  0  0  0  0  0  0  0999 V2000
    7.0327    2.4945   -0.0000 S   0  0  0  0  0  0  0  0  0  0  0  0
    6.9282    1.5000   -0.0000 C   0  0  0  0  0  0  0  0  0  0  0  0
    8.0109    2.7024   -0.0000 C   0  0  0  0  0  0  0  0  0  0  0  0
    7.8417    1.0933   -0.0000 N   0  0  0  0  0  0  0  0  0  0  0  0
    6.0622    1.0000   -0.0000 C   0  0  0  0  0  0  0  0  0  0  0  0
    8.5109    1.8364   -0.0000 C   0  0  0  0  0  0  0  0  0  0  0  0
    8.5109    3.5685   -0.0000 C   0  0  0  0  0  0  0  0  0  0  0  0
    5.1962    1.5000   -0.0000 C   0  0  0  0  0  0  0  0  0  0  0  0
    6.0622   -0.0000   -0.0000 C   0  0  0  0  0  0  0  0  0  0  0  0
    9.5109    1.8364   -0.0000 C   0  0  0  0  0  0  0  0  0  0  0  0
    9.5109    3.5685   -0.0000 C   0  0  0  0  0  0  0  0  0  0  0  0
    4.3301    1.0000   -0.0000 C   0  0  0  0  0  0  0  0  0  0  0  0
    5.1962   -0.5000   -0.0000 C   0  0  0  0  0  0  0  0  0  0  0  0
   10.0109    2.7024   -0.0000 C   0  0  0  0  0  0  0  0  0  0  0  0
    4.3301   -0.0000   -0.0000 C   0  0  0  0  0  0  0  0  0  0  0  0
    3.4641   -0.5000   -0.0000 C   0  0  0  0  0  0  0  0  0  0  0  0
    3.4641   -1.5000   -0.0000 O   0  0  0  0  0  0  0  0  0  0  0  0
    2.5981   -0.0000   -0.0000 N   0  0  0  0  0  0  0  0  0  0  0  0
    1.7321   -0.5000   -0.0000 N   0  0  0  0  0  0  0  0  0  0  0  0
    0.8660   -0.0000   -0.0000 C   0  0  0  0  0  0  0  0  0  0  0  0
    0.0000   -0.5000   -0.0000 C   0  0  0  0  0  0  0  0  0  0  0  0
   -0.8660    0.0000   -0.0000 C   0  0  0  0  0  0  0  0  0  0  0  0
   -0.0000   -1.5000   -0.0000 C   0  0  0  0  0  0  0  0  0  0  0  0
   -1.7321   -0.5000   -0.0000 C   0  0  0  0  0  0  0  0  0  0  0  0
   -0.8660   -2.0000   -0.0000 C   0  0  0  0  0  0  0  0  0  0  0  0
   -2.5981    0.0000   -0.0000 O   0  0  0  0  0  0  0  0  0  0  0  0
   -1.7321   -1.5000   -0.0000 C   0  0  0  0  0  0  0  0  0  0  0  0
  1  2  1  0  0  0  0
  1  3  1  0  0  0  0
  2  4  2  0  0  0  0
  2  5  1  0  0  0  0
  3  6  2  0  0  0  0
  3  7  1  0  0  0  0
  5  8  2  0  0  0  0
  5  9  1  0  0  0  0
  6 10  1  0  0  0  0
  7 11  2  0  0  0  0
  8 12  1  0  0  0  0
  9 13  2  0  0  0  0
 10 14  2  0  0  0  0
 12 15  2  0  0  0  0
 15 16  1  0  0  0  0
 16 17  2  0  0  0  0
 16 18  1  0  0  0  0
 18 19  1  0  0  0  0
 19 20  2  0  0  0  0
 20 21  1  0  0  0  0
 21 22  2  0  0  0  0
 21 23  1  0  0  0  0
 22 24  1  0  0  0  0
 23 25  2  0  0  0  0
 24 26  1  0  0  0  0
 24 27  2  0  0  0  0
  4  6  1  0  0  0  0
 11 14  1  0  0  0  0
 13 15  1  0  0  0  0
 25 27  1  0  0  0  0
M  END
>  <S/N>
183

>  <Compound ID>
C_198

>  <PubChem CID>
118730272

>  <Isomeric SMILES>
C1=CC=C2C(=C1)N=C(S2)C3=CC=C(C=C3)C(=O)N/N=C/C4=CC(=CC=C4)O

>  <IC50 (�M)>
9.21

>  <pIC50>
5.04

$$$$
C_199
Actelion Java MolfileCreator 1.0

 30 33  0  0  0  0  0  0  0  0999 V2000
    5.1962   -1.5000   -0.0000 I   0  0  0  0  0  0  0  0  0  0  0  0
    5.1962   -0.5000   -0.0000 C   0  0  0  0  0  0  0  0  0  0  0  0
    6.0622   -0.0000   -0.0000 C   0  0  0  0  0  0  0  0  0  0  0  0
    4.3301   -0.0000   -0.0000 C   0  0  0  0  0  0  0  0  0  0  0  0
    6.9282   -0.5000   -0.0000 O   0  0  0  0  0  0  0  0  0  0  0  0
    6.0622    1.0000   -0.0000 C   0  0  0  0  0  0  0  0  0  0  0  0
    4.3301    1.0000   -0.0000 C   0  0  0  0  0  0  0  0  0  0  0  0
    3.4641   -0.5000   -0.0000 C   0  0  0  0  0  0  0  0  0  0  0  0
    6.9282    1.5000   -0.0000 O   0  0  0  0  0  0  0  0  0  0  0  0
    5.1962    1.5000   -0.0000 C   0  0  0  0  0  0  0  0  0  0  0  0
    2.5981   -0.0000   -0.0000 N   0  0  0  0  0  0  0  0  0  0  0  0
    6.9282    2.5000   -0.0000 C   0  0  0  0  0  0  0  0  0  0  0  0
    1.7321   -0.5000   -0.0000 N   0  0  0  0  0  0  0  0  0  0  0  0
    0.8660   -0.0000   -0.0000 C   0  0  0  0  0  0  0  0  0  0  0  0
    0.8660    1.0000   -0.0000 O   0  0  0  0  0  0  0  0  0  0  0  0
    0.0000   -0.5000   -0.0000 C   0  0  0  0  0  0  0  0  0  0  0  0
   -0.8660    0.0000   -0.0000 C   0  0  0  0  0  0  0  0  0  0  0  0
   -0.0000   -1.5000   -0.0000 C   0  0  0  0  0  0  0  0  0  0  0  0
   -1.7321   -0.5000   -0.0000 C   0  0  0  0  0  0  0  0  0  0  0  0
   -0.8660   -2.0000   -0.0000 C   0  0  0  0  0  0  0  0  0  0  0  0
   -1.7321   -1.5000   -0.0000 C   0  0  0  0  0  0  0  0  0  0  0  0
   -2.5981   -2.0000   -0.0000 C   0  0  0  0  0  0  0  0  0  0  0  0
   -3.5116   -1.5933   -0.0000 S   0  0  0  0  0  0  0  0  0  0  0  0
   -2.7026   -2.9945   -0.0000 N   0  0  0  0  0  0  0  0  0  0  0  0
   -4.1808   -2.3364   -0.0000 C   0  0  0  0  0  0  0  0  0  0  0  0
   -3.6808   -3.2024   -0.0000 C   0  0  0  0  0  0  0  0  0  0  0  0
   -5.1808   -2.3364   -0.0000 C   0  0  0  0  0  0  0  0  0  0  0  0
   -4.1808   -4.0685   -0.0000 C   0  0  0  0  0  0  0  0  0  0  0  0
   -5.6808   -3.2024   -0.0000 C   0  0  0  0  0  0  0  0  0  0  0  0
   -5.1808   -4.0685   -0.0000 C   0  0  0  0  0  0  0  0  0  0  0  0
  1  2  1  0  0  0  0
  2  3  2  0  0  0  0
  2  4  1  0  0  0  0
  3  5  1  0  0  0  0
  3  6  1  0  0  0  0
  4  7  2  0  0  0  0
  4  8  1  0  0  0  0
  6  9  1  0  0  0  0
  6 10  2  0  0  0  0
  8 11  2  0  0  0  0
  9 12  1  0  0  0  0
 11 13  1  0  0  0  0
 13 14  1  0  0  0  0
 14 15  2  0  0  0  0
 14 16  1  0  0  0  0
 16 17  2  0  0  0  0
 16 18  1  0  0  0  0
 17 19  1  0  0  0  0
 18 20  2  0  0  0  0
 19 21  2  0  0  0  0
 21 22  1  0  0  0  0
 22 23  1  0  0  0  0
 22 24  2  0  0  0  0
 23 25  1  0  0  0  0
 24 26  1  0  0  0  0
 25 27  2  0  0  0  0
 26 28  2  0  0  0  0
 27 29  1  0  0  0  0
 28 30  1  0  0  0  0
  7 10  1  0  0  0  0
 20 21  1  0  0  0  0
 25 26  1  0  0  0  0
 29 30  2  0  0  0  0
M  END
>  <S/N>
184

>  <Compound ID>
C_199

>  <PubChem CID>
118730275

>  <Isomeric SMILES>
COC1=C(C(=C(C=C1)/C=N/NC(=O)C2=CC=C(C=C2)C3=NC4=CC=CC=C4S3)I)O

>  <IC50 (�M)>
44.8

>  <pIC50>
4.35

$$$$
C_200
Actelion Java MolfileCreator 1.0

 28 31  0  0  0  0  0  0  0  0999 V2000
    7.0327    2.4945   -0.0000 S   0  0  0  0  0  0  0  0  0  0  0  0
    6.9282    1.5000   -0.0000 C   0  0  0  0  0  0  0  0  0  0  0  0
    8.0109    2.7024   -0.0000 C   0  0  0  0  0  0  0  0  0  0  0  0
    7.8417    1.0933   -0.0000 N   0  0  0  0  0  0  0  0  0  0  0  0
    6.0622    1.0000   -0.0000 C   0  0  0  0  0  0  0  0  0  0  0  0
    8.5109    1.8364   -0.0000 C   0  0  0  0  0  0  0  0  0  0  0  0
    8.5109    3.5685   -0.0000 C   0  0  0  0  0  0  0  0  0  0  0  0
    5.1962    1.5000   -0.0000 C   0  0  0  0  0  0  0  0  0  0  0  0
    6.0622   -0.0000   -0.0000 C   0  0  0  0  0  0  0  0  0  0  0  0
    9.5109    1.8364   -0.0000 C   0  0  0  0  0  0  0  0  0  0  0  0
    9.5109    3.5685   -0.0000 C   0  0  0  0  0  0  0  0  0  0  0  0
    4.3301    1.0000   -0.0000 C   0  0  0  0  0  0  0  0  0  0  0  0
    5.1962   -0.5000   -0.0000 C   0  0  0  0  0  0  0  0  0  0  0  0
   10.0109    2.7024   -0.0000 C   0  0  0  0  0  0  0  0  0  0  0  0
    4.3301   -0.0000   -0.0000 C   0  0  0  0  0  0  0  0  0  0  0  0
    3.4641   -0.5000   -0.0000 C   0  0  0  0  0  0  0  0  0  0  0  0
    3.4641   -1.5000   -0.0000 O   0  0  0  0  0  0  0  0  0  0  0  0
    2.5981   -0.0000   -0.0000 N   0  0  0  0  0  0  0  0  0  0  0  0
    1.7321   -0.5000   -0.0000 N   0  0  0  0  0  0  0  0  0  0  0  0
    0.8660   -0.0000   -0.0000 C   0  0  0  0  0  0  0  0  0  0  0  0
    0.0000   -0.5000   -0.0000 C   0  0  0  0  0  0  0  0  0  0  0  0
   -0.8660    0.0000   -0.0000 C   0  0  0  0  0  0  0  0  0  0  0  0
   -0.0000   -1.5000   -0.0000 C   0  0  0  0  0  0  0  0  0  0  0  0
   -1.7321   -0.5000   -0.0000 C   0  0  0  0  0  0  0  0  0  0  0  0
   -0.8660   -2.0000   -0.0000 C   0  0  0  0  0  0  0  0  0  0  0  0
   -2.5981    0.0000   -0.0000 O   0  0  0  0  0  0  0  0  0  0  0  0
   -1.7321   -1.5000   -0.0000 C   0  0  0  0  0  0  0  0  0  0  0  0
   -0.8660   -3.0000   -0.0000 O   0  0  0  0  0  0  0  0  0  0  0  0
  1  2  1  0  0  0  0
  1  3  1  0  0  0  0
  2  4  2  0  0  0  0
  2  5  1  0  0  0  0
  3  6  2  0  0  0  0
  3  7  1  0  0  0  0
  5  8  2  0  0  0  0
  5  9  1  0  0  0  0
  6 10  1  0  0  0  0
  7 11  2  0  0  0  0
  8 12  1  0  0  0  0
  9 13  2  0  0  0  0
 10 14  2  0  0  0  0
 12 15  2  0  0  0  0
 15 16  1  0  0  0  0
 16 17  2  0  0  0  0
 16 18  1  0  0  0  0
 18 19  1  0  0  0  0
 19 20  2  0  0  0  0
 20 21  1  0  0  0  0
 21 22  2  0  0  0  0
 21 23  1  0  0  0  0
 22 24  1  0  0  0  0
 23 25  2  0  0  0  0
 24 26  1  0  0  0  0
 24 27  2  0  0  0  0
 25 28  1  0  0  0  0
  4  6  1  0  0  0  0
 11 14  1  0  0  0  0
 13 15  1  0  0  0  0
 25 27  1  0  0  0  0
M  END
>  <S/N>
185

>  <Compound ID>
C_200

>  <PubChem CID>
118730277

>  <Isomeric SMILES>
C1=CC=C2C(=C1)N=C(S2)C3=CC=C(C=C3)C(=O)N/N=C/C4=CC(=CC(=C4)O)O

>  <IC50 (�M)>
11.12

>  <pIC50>
4.95

$$$$
C_201
Actelion Java MolfileCreator 1.0

 22 24  0  0  0  0  0  0  0  0999 V2000
    6.4952   -0.0000   -0.0000 O   0  0  0  0  0  0  0  0  0  0  0  0
    5.1962   -0.7500   -0.0000 C   0  0  0  0  0  0  0  0  0  0  0  0
    3.8971   -0.0000   -0.0000 N   0  0  0  0  0  0  0  0  0  0  0  0
    5.1962   -2.2500   -0.0000 C   0  0  0  0  0  0  0  0  0  0  0  0
    2.5981   -0.7500   -0.0000 N   0  0  0  0  0  0  0  0  0  0  0  0
    3.9826   -3.1317   -0.0000 N   0  0  0  0  0  0  0  0  0  0  0  0
    6.4097   -3.1317   -0.0000 C   0  0  0  0  0  0  0  0  0  0  0  0
    1.2990   -0.0000   -0.0000 C   0  0  0  0  0  0  0  0  0  0  0  0
    4.4462   -4.5583   -0.0000 C   0  0  0  0  0  0  0  0  0  0  0  0
    5.9462   -4.5583   -0.0000 C   0  0  0  0  0  0  0  0  0  0  0  0
    0.0000   -0.7500   -0.0000 C   0  0  0  0  0  0  0  0  0  0  0  0
    3.6962   -5.8573   -0.0000 C   0  0  0  0  0  0  0  0  0  0  0  0
    6.6962   -5.8573   -0.0000 C   0  0  0  0  0  0  0  0  0  0  0  0
   -1.2990    0.0000   -0.0000 C   0  0  0  0  0  0  0  0  0  0  0  0
   -0.0000   -2.2500   -0.0000 C   0  0  0  0  0  0  0  0  0  0  0  0
    4.4462   -7.1563   -0.0000 C   0  0  0  0  0  0  0  0  0  0  0  0
    5.9462   -7.1563   -0.0000 C   0  0  0  0  0  0  0  0  0  0  0  0
   -2.5981   -0.7500   -0.0000 C   0  0  0  0  0  0  0  0  0  0  0  0
   -1.2990   -3.0000   -0.0000 C   0  0  0  0  0  0  0  0  0  0  0  0
   -3.8971    0.0000   -0.0000 O   0  0  0  0  0  0  0  0  0  0  0  0
   -2.5981   -2.2500   -0.0000 C   0  0  0  0  0  0  0  0  0  0  0  0
   -1.2990   -4.5000   -0.0000 O   0  0  0  0  0  0  0  0  0  0  0  0
  1  2  2  0  0  0  0
  2  3  1  0  0  0  0
  2  4  1  0  0  0  0
  3  5  1  0  0  0  0
  4  6  1  0  0  0  0
  4  7  2  0  0  0  0
  5  8  2  0  0  0  0
  6  9  1  0  0  0  0
  7 10  1  0  0  0  0
  8 11  1  0  0  0  0
  9 12  1  0  0  0  0
 10 13  1  0  0  0  0
 11 14  2  0  0  0  0
 11 15  1  0  0  0  0
 12 16  2  0  0  0  0
 13 17  2  0  0  0  0
 14 18  1  0  0  0  0
 15 19  2  0  0  0  0
 18 20  1  0  0  0  0
 18 21  2  0  0  0  0
 19 22  1  0  0  0  0
  9 10  2  0  0  0  0
 16 17  1  0  0  0  0
 19 21  1  0  0  0  0
M  END
>  <S/N>
186

>  <Compound ID>
C_201

>  <PubChem CID>
118855492

>  <Isomeric SMILES>
C1=CC=C2C(=C1)C=C(N2)C(=O)N/N=C/C3=CC(=CC(=C3)O)O

>  <IC50 (�M)>
2.3

>  <pIC50>
5.64

$$$$
C_202
Actelion Java MolfileCreator 1.0

 23 25  0  0  0  0  0  0  0  0999 V2000
    6.4952   -0.0000   -0.0000 O   0  0  0  0  0  0  0  0  0  0  0  0
    5.1962   -0.7500   -0.0000 C   0  0  0  0  0  0  0  0  0  0  0  0
    3.8971   -0.0000   -0.0000 N   0  0  0  0  0  0  0  0  0  0  0  0
    5.1962   -2.2500   -0.0000 C   0  0  0  0  0  0  0  0  0  0  0  0
    2.5981   -0.7500   -0.0000 N   0  0  0  0  0  0  0  0  0  0  0  0
    3.9826   -3.1317   -0.0000 N   0  0  0  0  0  0  0  0  0  0  0  0
    6.4097   -3.1317   -0.0000 C   0  0  0  0  0  0  0  0  0  0  0  0
    1.2990   -0.0000   -0.0000 C   0  0  0  0  0  0  0  0  0  0  0  0
    4.4462   -4.5583   -0.0000 C   0  0  0  0  0  0  0  0  0  0  0  0
    5.9462   -4.5583   -0.0000 C   0  0  0  0  0  0  0  0  0  0  0  0
    0.0000   -0.7500   -0.0000 C   0  0  0  0  0  0  0  0  0  0  0  0
    3.6962   -5.8573   -0.0000 C   0  0  0  0  0  0  0  0  0  0  0  0
    6.6962   -5.8573   -0.0000 C   0  0  0  0  0  0  0  0  0  0  0  0
   -1.2990    0.0000   -0.0000 C   0  0  0  0  0  0  0  0  0  0  0  0
   -0.0000   -2.2500   -0.0000 C   0  0  0  0  0  0  0  0  0  0  0  0
    4.4462   -7.1563   -0.0000 C   0  0  0  0  0  0  0  0  0  0  0  0
    5.9462   -7.1563   -0.0000 C   0  0  0  0  0  0  0  0  0  0  0  0
   -2.5981   -0.7500   -0.0000 C   0  0  0  0  0  0  0  0  0  0  0  0
   -1.2990   -3.0000   -0.0000 C   0  0  0  0  0  0  0  0  0  0  0  0
   -3.8971    0.0000   -0.0000 O   0  0  0  0  0  0  0  0  0  0  0  0
   -2.5981   -2.2500   -0.0000 C   0  0  0  0  0  0  0  0  0  0  0  0
   -3.8971   -3.0000   -0.0000 O   0  0  0  0  0  0  0  0  0  0  0  0
   -3.8971   -4.5000   -0.0000 C   0  0  0  0  0  0  0  0  0  0  0  0
  1  2  2  0  0  0  0
  2  3  1  0  0  0  0
  2  4  1  0  0  0  0
  3  5  1  0  0  0  0
  4  6  1  0  0  0  0
  4  7  2  0  0  0  0
  5  8  2  0  0  0  0
  6  9  1  0  0  0  0
  7 10  1  0  0  0  0
  8 11  1  0  0  0  0
  9 12  1  0  0  0  0
 10 13  1  0  0  0  0
 11 14  2  0  0  0  0
 11 15  1  0  0  0  0
 12 16  2  0  0  0  0
 13 17  2  0  0  0  0
 14 18  1  0  0  0  0
 15 19  2  0  0  0  0
 18 20  1  0  0  0  0
 18 21  2  0  0  0  0
 21 22  1  0  0  0  0
 22 23  1  0  0  0  0
  9 10  2  0  0  0  0
 16 17  1  0  0  0  0
 19 21  1  0  0  0  0
M  END
>  <S/N>
187

>  <Compound ID>
C_202

>  <PubChem CID>
118855494

>  <Isomeric SMILES>
COC1=C(C=C(C=C1)/C=N/NC(=O)C2=CC3=CC=CC=C3N2)O

>  <IC50 (�M)>
2.3

>  <pIC50>
5.64

$$$$
C_203
Actelion Java MolfileCreator 1.0

 24 26  0  0  0  0  0  0  0  0999 V2000
    5.1962   -1.5000   -0.0000 I   0  0  0  0  0  0  0  0  0  0  0  0
    5.1962   -0.5000   -0.0000 C   0  0  0  0  0  0  0  0  0  0  0  0
    6.0622   -0.0000   -0.0000 C   0  0  0  0  0  0  0  0  0  0  0  0
    4.3301   -0.0000   -0.0000 C   0  0  0  0  0  0  0  0  0  0  0  0
    6.9282   -0.5000   -0.0000 O   0  0  0  0  0  0  0  0  0  0  0  0
    6.0622    1.0000   -0.0000 C   0  0  0  0  0  0  0  0  0  0  0  0
    4.3301    1.0000   -0.0000 C   0  0  0  0  0  0  0  0  0  0  0  0
    3.4641   -0.5000   -0.0000 C   0  0  0  0  0  0  0  0  0  0  0  0
    6.9282    1.5000   -0.0000 O   0  0  0  0  0  0  0  0  0  0  0  0
    5.1962    1.5000   -0.0000 C   0  0  0  0  0  0  0  0  0  0  0  0
    2.5981   -0.0000   -0.0000 N   0  0  0  0  0  0  0  0  0  0  0  0
    6.9282    2.5000   -0.0000 C   0  0  0  0  0  0  0  0  0  0  0  0
    1.7321   -0.5000   -0.0000 N   0  0  0  0  0  0  0  0  0  0  0  0
    0.8660   -0.0000   -0.0000 C   0  0  0  0  0  0  0  0  0  0  0  0
    0.8660    1.0000   -0.0000 O   0  0  0  0  0  0  0  0  0  0  0  0
    0.0000   -0.5000   -0.0000 C   0  0  0  0  0  0  0  0  0  0  0  0
   -0.9135   -0.0933   -0.0000 N   0  0  0  0  0  0  0  0  0  0  0  0
   -0.1045   -1.4945   -0.0000 C   0  0  0  0  0  0  0  0  0  0  0  0
   -1.5827   -0.8364   -0.0000 C   0  0  0  0  0  0  0  0  0  0  0  0
   -1.0827   -1.7024   -0.0000 C   0  0  0  0  0  0  0  0  0  0  0  0
   -2.5827   -0.8364   -0.0000 C   0  0  0  0  0  0  0  0  0  0  0  0
   -1.5827   -2.5685   -0.0000 C   0  0  0  0  0  0  0  0  0  0  0  0
   -3.0827   -1.7024   -0.0000 C   0  0  0  0  0  0  0  0  0  0  0  0
   -2.5827   -2.5685   -0.0000 C   0  0  0  0  0  0  0  0  0  0  0  0
  1  2  1  0  0  0  0
  2  3  2  0  0  0  0
  2  4  1  0  0  0  0
  3  5  1  0  0  0  0
  3  6  1  0  0  0  0
  4  7  2  0  0  0  0
  4  8  1  0  0  0  0
  6  9  1  0  0  0  0
  6 10  2  0  0  0  0
  8 11  2  0  0  0  0
  9 12  1  0  0  0  0
 11 13  1  0  0  0  0
 13 14  1  0  0  0  0
 14 15  2  0  0  0  0
 14 16  1  0  0  0  0
 16 17  1  0  0  0  0
 16 18  2  0  0  0  0
 17 19  1  0  0  0  0
 18 20  1  0  0  0  0
 19 21  2  0  0  0  0
 20 22  2  0  0  0  0
 21 23  1  0  0  0  0
 22 24  1  0  0  0  0
  7 10  1  0  0  0  0
 19 20  1  0  0  0  0
 23 24  2  0  0  0  0
M  END
>  <S/N>
188

>  <Compound ID>
C_203

>  <PubChem CID>
118855496

>  <Isomeric SMILES>
COC1=C(C(=C(C=C1)/C=N/NC(=O)C2=CC3=CC=CC=C3N2)I)O

>  <IC50 (�M)>
2.3

>  <pIC50>
5.64

$$$$
C_204
Actelion Java MolfileCreator 1.0

 29 32  0  0  0  0  0  0  0  0999 V2000
    4.4347    0.9945   -0.0000 S   0  0  0  0  0  0  0  0  0  0  0  0
    4.3301   -0.0000   -0.0000 C   0  0  0  0  0  0  0  0  0  0  0  0
    5.4128    1.2024   -0.0000 C   0  0  0  0  0  0  0  0  0  0  0  0
    5.2437   -0.4067   -0.0000 N   0  0  0  0  0  0  0  0  0  0  0  0
    3.4641   -0.5000   -0.0000 C   0  0  0  0  0  0  0  0  0  0  0  0
    5.9128    0.3364   -0.0000 C   0  0  0  0  0  0  0  0  0  0  0  0
    3.4641   -1.5000   -0.0000 O   0  0  0  0  0  0  0  0  0  0  0  0
    2.5981   -0.0000   -0.0000 N   0  0  0  0  0  0  0  0  0  0  0  0
    6.9073    0.2319   -0.0000 C   0  0  0  0  0  0  0  0  0  0  0  0
    1.7321   -0.5000   -0.0000 N   0  0  0  0  0  0  0  0  0  0  0  0
    7.3141   -0.6817   -0.0000 C   0  0  0  0  0  0  0  0  0  0  0  0
    7.4951    1.0409   -0.0000 C   0  0  0  0  0  0  0  0  0  0  0  0
    0.8660   -0.0000   -0.0000 C   0  0  0  0  0  0  0  0  0  0  0  0
    6.7263   -1.4907   -0.0000 O   0  0  0  0  0  0  0  0  0  0  0  0
    8.3086   -0.7862   -0.0000 O   0  0  0  0  0  0  0  0  0  0  0  0
    8.4896    0.9364   -0.0000 C   0  0  0  0  0  0  0  0  0  0  0  0
    0.0000   -0.5000   -0.0000 C   0  0  0  0  0  0  0  0  0  0  0  0
    8.8964    0.0228   -0.0000 C   0  0  0  0  0  0  0  0  0  0  0  0
    9.0774    1.7454   -0.0000 C   0  0  0  0  0  0  0  0  0  0  0  0
   -0.8660    0.0000   -0.0000 C   0  0  0  0  0  0  0  0  0  0  0  0
   -0.0000   -1.5000   -0.0000 C   0  0  0  0  0  0  0  0  0  0  0  0
    9.8909   -0.0817   -0.0000 C   0  0  0  0  0  0  0  0  0  0  0  0
   10.0719    1.6409   -0.0000 C   0  0  0  0  0  0  0  0  0  0  0  0
   -1.7321   -0.5000   -0.0000 C   0  0  0  0  0  0  0  0  0  0  0  0
   -0.8660   -2.0000   -0.0000 C   0  0  0  0  0  0  0  0  0  0  0  0
   10.4787    0.7273   -0.0000 C   0  0  0  0  0  0  0  0  0  0  0  0
   -1.7321   -1.5000   -0.0000 C   0  0  0  0  0  0  0  0  0  0  0  0
   -2.5981   -2.0000   -0.0000 O   0  0  0  0  0  0  0  0  0  0  0  0
   -2.5981   -3.0000   -0.0000 C   0  0  0  0  0  0  0  0  0  0  0  0
  1  2  1  0  0  0  0
  1  3  1  0  0  0  0
  2  4  2  0  0  0  0
  2  5  1  0  0  0  0
  3  6  2  0  0  0  0
  5  7  2  0  0  0  0
  5  8  1  0  0  0  0
  6  9  1  0  0  0  0
  8 10  1  0  0  0  0
  9 11  1  0  0  0  0
  9 12  2  0  0  0  0
 10 13  2  0  0  0  0
 11 14  2  0  0  0  0
 11 15  1  0  0  0  0
 12 16  1  0  0  0  0
 13 17  1  0  0  0  0
 15 18  1  0  0  0  0
 16 19  1  0  0  0  0
 17 20  2  0  0  0  0
 17 21  1  0  0  0  0
 18 22  1  0  0  0  0
 19 23  2  0  0  0  0
 20 24  1  0  0  0  0
 21 25  2  0  0  0  0
 22 26  2  0  0  0  0
 24 27  2  0  0  0  0
 27 28  1  0  0  0  0
 28 29  1  0  0  0  0
  4  6  1  0  0  0  0
 16 18  2  0  0  0  0
 23 26  1  0  0  0  0
 25 27  1  0  0  0  0
M  END
>  <S/N>
189

>  <Compound ID>
C_204

>  <PubChem CID>
119081250

>  <Isomeric SMILES>
COC1=CC=C(C=C1)/C=N/NC(=O)C2=NC(=CS2)C3=CC4=CC=CC=C4OC3=O

>  <IC50 (�M)>
6.2

>  <pIC50>
5.21

$$$$
C_205
Actelion Java MolfileCreator 1.0

 28 31  0  0  0  0  0  0  0  0999 V2000
   10.3923    2.2500   -0.0000 Cl  0  0  0  0  0  0  0  0  0  0  0  0
    9.0933    1.5000   -0.0000 C   0  0  0  0  0  0  0  0  0  0  0  0
    7.7942    2.2500   -0.0000 C   0  0  0  0  0  0  0  0  0  0  0  0
    9.0933   -0.0000   -0.0000 C   0  0  0  0  0  0  0  0  0  0  0  0
    6.4952    1.5000   -0.0000 C   0  0  0  0  0  0  0  0  0  0  0  0
    7.7942   -0.7500   -0.0000 C   0  0  0  0  0  0  0  0  0  0  0  0
    6.4952   -0.0000   -0.0000 C   0  0  0  0  0  0  0  0  0  0  0  0
    5.1962   -0.7500   -0.0000 C   0  0  0  0  0  0  0  0  0  0  0  0
    3.8971   -0.0000   -0.0000 N   0  0  0  0  0  0  0  0  0  0  0  0
    2.5981   -0.7500   -0.0000 N   0  0  0  0  0  0  0  0  0  0  0  0
    1.2990   -0.0000   -0.0000 C   0  0  0  0  0  0  0  0  0  0  0  0
    1.2990    1.5000   -0.0000 O   0  0  0  0  0  0  0  0  0  0  0  0
    0.0000   -0.7500   -0.0000 C   0  0  0  0  0  0  0  0  0  0  0  0
   -1.3703   -0.1399   -0.0000 S   0  0  0  0  0  0  0  0  0  0  0  0
   -0.1568   -2.2418   -0.0000 N   0  0  0  0  0  0  0  0  0  0  0  0
   -2.3740   -1.2546   -0.0000 C   0  0  0  0  0  0  0  0  0  0  0  0
   -1.6240   -2.5537   -0.0000 C   0  0  0  0  0  0  0  0  0  0  0  0
   -2.2341   -3.9240   -0.0000 C   0  0  0  0  0  0  0  0  0  0  0  0
   -3.7259   -4.0808   -0.0000 C   0  0  0  0  0  0  0  0  0  0  0  0
   -1.3524   -5.1375   -0.0000 C   0  0  0  0  0  0  0  0  0  0  0  0
   -4.6076   -2.8672   -0.0000 O   0  0  0  0  0  0  0  0  0  0  0  0
   -4.3360   -5.4511   -0.0000 O   0  0  0  0  0  0  0  0  0  0  0  0
   -1.9625   -6.5078   -0.0000 C   0  0  0  0  0  0  0  0  0  0  0  0
   -3.4543   -6.6646   -0.0000 C   0  0  0  0  0  0  0  0  0  0  0  0
   -1.0809   -7.7213   -0.0000 C   0  0  0  0  0  0  0  0  0  0  0  0
   -4.0644   -8.0349   -0.0000 C   0  0  0  0  0  0  0  0  0  0  0  0
   -1.6910   -9.0917   -0.0000 C   0  0  0  0  0  0  0  0  0  0  0  0
   -3.1828   -9.2484   -0.0000 C   0  0  0  0  0  0  0  0  0  0  0  0
  1  2  1  0  0  0  0
  2  3  2  0  0  0  0
  2  4  1  0  0  0  0
  3  5  1  0  0  0  0
  4  6  2  0  0  0  0
  5  7  2  0  0  0  0
  7  8  1  0  0  0  0
  8  9  2  0  0  0  0
  9 10  1  0  0  0  0
 10 11  1  0  0  0  0
 11 12  2  0  0  0  0
 11 13  1  0  0  0  0
 13 14  1  0  0  0  0
 13 15  2  0  0  0  0
 14 16  1  0  0  0  0
 15 17  1  0  0  0  0
 17 18  1  0  0  0  0
 18 19  1  0  0  0  0
 18 20  2  0  0  0  0
 19 21  2  0  0  0  0
 19 22  1  0  0  0  0
 20 23  1  0  0  0  0
 22 24  1  0  0  0  0
 23 25  2  0  0  0  0
 24 26  2  0  0  0  0
 25 27  1  0  0  0  0
 26 28  1  0  0  0  0
  6  7  1  0  0  0  0
 16 17  2  0  0  0  0
 23 24  1  0  0  0  0
 27 28  2  0  0  0  0
M  END
>  <S/N>
190

>  <Compound ID>
C_205

>  <PubChem CID>
119081260

>  <Isomeric SMILES>
C1=CC=C2C(=C1)C=C(C(=O)O2)C3=CSC(=N3)C(=O)N/N=C/C4=CC=C(C=C4)Cl

>  <IC50 (�M)>
6.2

>  <pIC50>
5.21

$$$$
C_206
Actelion Java MolfileCreator 1.0

 28 31  0  0  0  0  0  0  0  0999 V2000
    7.7942    3.7500   -0.0000 Cl  0  0  0  0  0  0  0  0  0  0  0  0
    7.7942    2.2500   -0.0000 C   0  0  0  0  0  0  0  0  0  0  0  0
    6.4952    1.5000   -0.0000 C   0  0  0  0  0  0  0  0  0  0  0  0
    9.0933    1.5000   -0.0000 C   0  0  0  0  0  0  0  0  0  0  0  0
    6.4952   -0.0000   -0.0000 C   0  0  0  0  0  0  0  0  0  0  0  0
    9.0933   -0.0000   -0.0000 C   0  0  0  0  0  0  0  0  0  0  0  0
    7.7942   -0.7500   -0.0000 C   0  0  0  0  0  0  0  0  0  0  0  0
    5.1962   -0.7500   -0.0000 C   0  0  0  0  0  0  0  0  0  0  0  0
    3.8971   -0.0000   -0.0000 N   0  0  0  0  0  0  0  0  0  0  0  0
    2.5981   -0.7500   -0.0000 N   0  0  0  0  0  0  0  0  0  0  0  0
    1.2990   -0.0000   -0.0000 C   0  0  0  0  0  0  0  0  0  0  0  0
    1.2990    1.5000   -0.0000 O   0  0  0  0  0  0  0  0  0  0  0  0
    0.0000   -0.7500   -0.0000 C   0  0  0  0  0  0  0  0  0  0  0  0
   -1.3703   -0.1399   -0.0000 S   0  0  0  0  0  0  0  0  0  0  0  0
   -0.1568   -2.2418   -0.0000 N   0  0  0  0  0  0  0  0  0  0  0  0
   -2.3740   -1.2546   -0.0000 C   0  0  0  0  0  0  0  0  0  0  0  0
   -1.6240   -2.5537   -0.0000 C   0  0  0  0  0  0  0  0  0  0  0  0
   -2.2341   -3.9240   -0.0000 C   0  0  0  0  0  0  0  0  0  0  0  0
   -3.7259   -4.0808   -0.0000 C   0  0  0  0  0  0  0  0  0  0  0  0
   -1.3524   -5.1375   -0.0000 C   0  0  0  0  0  0  0  0  0  0  0  0
   -4.6076   -2.8672   -0.0000 O   0  0  0  0  0  0  0  0  0  0  0  0
   -4.3360   -5.4511   -0.0000 O   0  0  0  0  0  0  0  0  0  0  0  0
   -1.9625   -6.5078   -0.0000 C   0  0  0  0  0  0  0  0  0  0  0  0
   -3.4543   -6.6646   -0.0000 C   0  0  0  0  0  0  0  0  0  0  0  0
   -1.0809   -7.7213   -0.0000 C   0  0  0  0  0  0  0  0  0  0  0  0
   -4.0644   -8.0349   -0.0000 C   0  0  0  0  0  0  0  0  0  0  0  0
   -1.6910   -9.0917   -0.0000 C   0  0  0  0  0  0  0  0  0  0  0  0
   -3.1828   -9.2484   -0.0000 C   0  0  0  0  0  0  0  0  0  0  0  0
  1  2  1  0  0  0  0
  2  3  2  0  0  0  0
  2  4  1  0  0  0  0
  3  5  1  0  0  0  0
  4  6  2  0  0  0  0
  5  7  2  0  0  0  0
  5  8  1  0  0  0  0
  8  9  2  0  0  0  0
  9 10  1  0  0  0  0
 10 11  1  0  0  0  0
 11 12  2  0  0  0  0
 11 13  1  0  0  0  0
 13 14  1  0  0  0  0
 13 15  2  0  0  0  0
 14 16  1  0  0  0  0
 15 17  1  0  0  0  0
 17 18  1  0  0  0  0
 18 19  1  0  0  0  0
 18 20  2  0  0  0  0
 19 21  2  0  0  0  0
 19 22  1  0  0  0  0
 20 23  1  0  0  0  0
 22 24  1  0  0  0  0
 23 25  2  0  0  0  0
 24 26  2  0  0  0  0
 25 27  1  0  0  0  0
 26 28  1  0  0  0  0
  6  7  1  0  0  0  0
 16 17  2  0  0  0  0
 23 24  1  0  0  0  0
 27 28  2  0  0  0  0
M  END
>  <S/N>
191

>  <Compound ID>
C_206

>  <PubChem CID>
119081261

>  <Isomeric SMILES>
C1=CC=C2C(=C1)C=C(C(=O)O2)C3=CSC(=N3)C(=O)N/N=C/C4=CC(=CC=C4)Cl

>  <IC50 (�M)>
6.2

>  <pIC50>
5.21

$$$$
C_207
Actelion Java MolfileCreator 1.0

 31 34  0  0  0  0  0  0  0  0999 V2000
    4.4347    0.9945   -0.0000 S   0  0  0  0  0  0  0  0  0  0  0  0
    4.3301   -0.0000   -0.0000 C   0  0  0  0  0  0  0  0  0  0  0  0
    5.4128    1.2024   -0.0000 C   0  0  0  0  0  0  0  0  0  0  0  0
    5.2437   -0.4067   -0.0000 N   0  0  0  0  0  0  0  0  0  0  0  0
    3.4641   -0.5000   -0.0000 C   0  0  0  0  0  0  0  0  0  0  0  0
    5.9128    0.3364   -0.0000 C   0  0  0  0  0  0  0  0  0  0  0  0
    3.4641   -1.5000   -0.0000 O   0  0  0  0  0  0  0  0  0  0  0  0
    2.5981   -0.0000   -0.0000 N   0  0  0  0  0  0  0  0  0  0  0  0
    6.9073    0.2319   -0.0000 C   0  0  0  0  0  0  0  0  0  0  0  0
    1.7321   -0.5000   -0.0000 N   0  0  0  0  0  0  0  0  0  0  0  0
    7.3141   -0.6817   -0.0000 C   0  0  0  0  0  0  0  0  0  0  0  0
    7.4951    1.0409   -0.0000 C   0  0  0  0  0  0  0  0  0  0  0  0
    0.8660   -0.0000   -0.0000 C   0  0  0  0  0  0  0  0  0  0  0  0
    6.7263   -1.4907   -0.0000 O   0  0  0  0  0  0  0  0  0  0  0  0
    8.3086   -0.7862   -0.0000 O   0  0  0  0  0  0  0  0  0  0  0  0
    8.4896    0.9364   -0.0000 C   0  0  0  0  0  0  0  0  0  0  0  0
    0.0000   -0.5000   -0.0000 C   0  0  0  0  0  0  0  0  0  0  0  0
    8.8964    0.0228   -0.0000 C   0  0  0  0  0  0  0  0  0  0  0  0
    9.0774    1.7454   -0.0000 C   0  0  0  0  0  0  0  0  0  0  0  0
   -0.8660    0.0000   -0.0000 C   0  0  0  0  0  0  0  0  0  0  0  0
   -0.0000   -1.5000   -0.0000 C   0  0  0  0  0  0  0  0  0  0  0  0
    9.8909   -0.0817   -0.0000 C   0  0  0  0  0  0  0  0  0  0  0  0
   10.0719    1.6409   -0.0000 C   0  0  0  0  0  0  0  0  0  0  0  0
   -1.7321   -0.5000   -0.0000 C   0  0  0  0  0  0  0  0  0  0  0  0
   -0.8660   -2.0000   -0.0000 C   0  0  0  0  0  0  0  0  0  0  0  0
   10.4787    0.7273   -0.0000 C   0  0  0  0  0  0  0  0  0  0  0  0
   -1.7321   -1.5000   -0.0000 C   0  0  0  0  0  0  0  0  0  0  0  0
   -2.5981   -2.0000   -0.0000 C   0  0  0  0  0  0  0  0  0  0  0  0
   -2.0981   -2.8660   -0.0000 F   0  0  0  0  0  0  0  0  0  0  0  0
   -3.4641   -2.5000   -0.0000 F   0  0  0  0  0  0  0  0  0  0  0  0
   -3.0981   -1.1340   -0.0000 F   0  0  0  0  0  0  0  0  0  0  0  0
  1  2  1  0  0  0  0
  1  3  1  0  0  0  0
  2  4  2  0  0  0  0
  2  5  1  0  0  0  0
  3  6  2  0  0  0  0
  5  7  2  0  0  0  0
  5  8  1  0  0  0  0
  6  9  1  0  0  0  0
  8 10  1  0  0  0  0
  9 11  1  0  0  0  0
  9 12  2  0  0  0  0
 10 13  2  0  0  0  0
 11 14  2  0  0  0  0
 11 15  1  0  0  0  0
 12 16  1  0  0  0  0
 13 17  1  0  0  0  0
 15 18  1  0  0  0  0
 16 19  1  0  0  0  0
 17 20  2  0  0  0  0
 17 21  1  0  0  0  0
 18 22  1  0  0  0  0
 19 23  2  0  0  0  0
 20 24  1  0  0  0  0
 21 25  2  0  0  0  0
 22 26  2  0  0  0  0
 24 27  2  0  0  0  0
 27 28  1  0  0  0  0
 28 29  1  0  0  0  0
 28 30  1  0  0  0  0
 28 31  1  0  0  0  0
  4  6  1  0  0  0  0
 16 18  2  0  0  0  0
 23 26  1  0  0  0  0
 25 27  1  0  0  0  0
M  END
>  <S/N>
192

>  <Compound ID>
C_207

>  <PubChem CID>
119081262

>  <Isomeric SMILES>
C1=CC=C2C(=C1)C=C(C(=O)O2)C3=CSC(=N3)C(=O)N/N=C/C4=CC=C(C=C4)C(F)(F)F

>  <IC50 (�M)>
6.2

>  <pIC50>
5.21

$$$$
C_208
Actelion Java MolfileCreator 1.0

 28 31  0  0  0  0  0  0  0  0999 V2000
    4.4347    0.9945   -0.0000 S   0  0  0  0  0  0  0  0  0  0  0  0
    4.3301   -0.0000   -0.0000 C   0  0  0  0  0  0  0  0  0  0  0  0
    5.4128    1.2024   -0.0000 C   0  0  0  0  0  0  0  0  0  0  0  0
    5.2437   -0.4067   -0.0000 N   0  0  0  0  0  0  0  0  0  0  0  0
    3.4641   -0.5000   -0.0000 C   0  0  0  0  0  0  0  0  0  0  0  0
    5.9128    0.3364   -0.0000 C   0  0  0  0  0  0  0  0  0  0  0  0
    3.4641   -1.5000   -0.0000 O   0  0  0  0  0  0  0  0  0  0  0  0
    2.5981   -0.0000   -0.0000 N   0  0  0  0  0  0  0  0  0  0  0  0
    6.9073    0.2319   -0.0000 C   0  0  0  0  0  0  0  0  0  0  0  0
    1.7321   -0.5000   -0.0000 N   0  0  0  0  0  0  0  0  0  0  0  0
    7.3141   -0.6817   -0.0000 C   0  0  0  0  0  0  0  0  0  0  0  0
    7.4951    1.0409   -0.0000 C   0  0  0  0  0  0  0  0  0  0  0  0
    0.8660   -0.0000   -0.0000 C   0  0  0  0  0  0  0  0  0  0  0  0
    6.7263   -1.4907   -0.0000 O   0  0  0  0  0  0  0  0  0  0  0  0
    8.3086   -0.7862   -0.0000 O   0  0  0  0  0  0  0  0  0  0  0  0
    8.4896    0.9364   -0.0000 C   0  0  0  0  0  0  0  0  0  0  0  0
    0.0000   -0.5000   -0.0000 C   0  0  0  0  0  0  0  0  0  0  0  0
    8.8964    0.0228   -0.0000 C   0  0  0  0  0  0  0  0  0  0  0  0
    9.0774    1.7454   -0.0000 C   0  0  0  0  0  0  0  0  0  0  0  0
   -0.8660    0.0000   -0.0000 C   0  0  0  0  0  0  0  0  0  0  0  0
   -0.0000   -1.5000   -0.0000 C   0  0  0  0  0  0  0  0  0  0  0  0
    9.8909   -0.0817   -0.0000 C   0  0  0  0  0  0  0  0  0  0  0  0
   10.0719    1.6409   -0.0000 C   0  0  0  0  0  0  0  0  0  0  0  0
   -0.8660    1.0000   -0.0000 F   0  0  0  0  0  0  0  0  0  0  0  0
   -1.7321   -0.5000   -0.0000 C   0  0  0  0  0  0  0  0  0  0  0  0
   -0.8660   -2.0000   -0.0000 C   0  0  0  0  0  0  0  0  0  0  0  0
   10.4787    0.7273   -0.0000 C   0  0  0  0  0  0  0  0  0  0  0  0
   -1.7321   -1.5000   -0.0000 C   0  0  0  0  0  0  0  0  0  0  0  0
  1  2  1  0  0  0  0
  1  3  1  0  0  0  0
  2  4  2  0  0  0  0
  2  5  1  0  0  0  0
  3  6  2  0  0  0  0
  5  7  2  0  0  0  0
  5  8  1  0  0  0  0
  6  9  1  0  0  0  0
  8 10  1  0  0  0  0
  9 11  1  0  0  0  0
  9 12  2  0  0  0  0
 10 13  2  0  0  0  0
 11 14  2  0  0  0  0
 11 15  1  0  0  0  0
 12 16  1  0  0  0  0
 13 17  1  0  0  0  0
 15 18  1  0  0  0  0
 16 19  1  0  0  0  0
 17 20  2  0  0  0  0
 17 21  1  0  0  0  0
 18 22  1  0  0  0  0
 19 23  2  0  0  0  0
 20 24  1  0  0  0  0
 20 25  1  0  0  0  0
 21 26  2  0  0  0  0
 22 27  2  0  0  0  0
 25 28  2  0  0  0  0
  4  6  1  0  0  0  0
 16 18  2  0  0  0  0
 23 27  1  0  0  0  0
 26 28  1  0  0  0  0
M  END
>  <S/N>
193

>  <Compound ID>
C_208

>  <PubChem CID>
119081263

>  <Isomeric SMILES>
C1=CC=C2C(=C1)C=C(C(=O)O2)C3=CSC(=N3)C(=O)N/N=C/C4=CC=CC=C4F

>  <IC50 (�M)>
6.2

>  <pIC50>
5.21

$$$$
C_209
Actelion Java MolfileCreator 1.0

 28 31  0  0  0  0  0  0  0  0999 V2000
    7.7942    3.7500   -0.0000 Br  0  0  0  0  0  0  0  0  0  0  0  0
    7.7942    2.2500   -0.0000 C   0  0  0  0  0  0  0  0  0  0  0  0
    6.4952    1.5000   -0.0000 C   0  0  0  0  0  0  0  0  0  0  0  0
    9.0933    1.5000   -0.0000 C   0  0  0  0  0  0  0  0  0  0  0  0
    6.4952   -0.0000   -0.0000 C   0  0  0  0  0  0  0  0  0  0  0  0
    9.0933   -0.0000   -0.0000 C   0  0  0  0  0  0  0  0  0  0  0  0
    7.7942   -0.7500   -0.0000 C   0  0  0  0  0  0  0  0  0  0  0  0
    5.1962   -0.7500   -0.0000 C   0  0  0  0  0  0  0  0  0  0  0  0
    3.8971   -0.0000   -0.0000 N   0  0  0  0  0  0  0  0  0  0  0  0
    2.5981   -0.7500   -0.0000 N   0  0  0  0  0  0  0  0  0  0  0  0
    1.2990   -0.0000   -0.0000 C   0  0  0  0  0  0  0  0  0  0  0  0
    1.2990    1.5000   -0.0000 O   0  0  0  0  0  0  0  0  0  0  0  0
    0.0000   -0.7500   -0.0000 C   0  0  0  0  0  0  0  0  0  0  0  0
   -1.3703   -0.1399   -0.0000 S   0  0  0  0  0  0  0  0  0  0  0  0
   -0.1568   -2.2418   -0.0000 N   0  0  0  0  0  0  0  0  0  0  0  0
   -2.3740   -1.2546   -0.0000 C   0  0  0  0  0  0  0  0  0  0  0  0
   -1.6240   -2.5537   -0.0000 C   0  0  0  0  0  0  0  0  0  0  0  0
   -2.2341   -3.9240   -0.0000 C   0  0  0  0  0  0  0  0  0  0  0  0
   -3.7259   -4.0808   -0.0000 C   0  0  0  0  0  0  0  0  0  0  0  0
   -1.3524   -5.1375   -0.0000 C   0  0  0  0  0  0  0  0  0  0  0  0
   -4.6076   -2.8672   -0.0000 O   0  0  0  0  0  0  0  0  0  0  0  0
   -4.3360   -5.4511   -0.0000 O   0  0  0  0  0  0  0  0  0  0  0  0
   -1.9625   -6.5078   -0.0000 C   0  0  0  0  0  0  0  0  0  0  0  0
   -3.4543   -6.6646   -0.0000 C   0  0  0  0  0  0  0  0  0  0  0  0
   -1.0809   -7.7213   -0.0000 C   0  0  0  0  0  0  0  0  0  0  0  0
   -4.0644   -8.0349   -0.0000 C   0  0  0  0  0  0  0  0  0  0  0  0
   -1.6910   -9.0917   -0.0000 C   0  0  0  0  0  0  0  0  0  0  0  0
   -3.1828   -9.2484   -0.0000 C   0  0  0  0  0  0  0  0  0  0  0  0
  1  2  1  0  0  0  0
  2  3  2  0  0  0  0
  2  4  1  0  0  0  0
  3  5  1  0  0  0  0
  4  6  2  0  0  0  0
  5  7  2  0  0  0  0
  5  8  1  0  0  0  0
  8  9  2  0  0  0  0
  9 10  1  0  0  0  0
 10 11  1  0  0  0  0
 11 12  2  0  0  0  0
 11 13  1  0  0  0  0
 13 14  1  0  0  0  0
 13 15  2  0  0  0  0
 14 16  1  0  0  0  0
 15 17  1  0  0  0  0
 17 18  1  0  0  0  0
 18 19  1  0  0  0  0
 18 20  2  0  0  0  0
 19 21  2  0  0  0  0
 19 22  1  0  0  0  0
 20 23  1  0  0  0  0
 22 24  1  0  0  0  0
 23 25  2  0  0  0  0
 24 26  2  0  0  0  0
 25 27  1  0  0  0  0
 26 28  1  0  0  0  0
  6  7  1  0  0  0  0
 16 17  2  0  0  0  0
 23 24  1  0  0  0  0
 27 28  2  0  0  0  0
M  END
>  <S/N>
194

>  <Compound ID>
C_209

>  <PubChem CID>
119081264

>  <Isomeric SMILES>
C1=CC=C2C(=C1)C=C(C(=O)O2)C3=CSC(=N3)C(=O)N/N=C/C4=CC(=CC=C4)Br

>  <IC50 (�M)>
6.2

>  <pIC50>
5.21

$$$$
C_210
Actelion Java MolfileCreator 1.0

 29 32  0  0  0  0  0  0  0  0999 V2000
    4.4347    0.9945   -0.0000 S   0  0  0  0  0  0  0  0  0  0  0  0
    4.3301   -0.0000   -0.0000 C   0  0  0  0  0  0  0  0  0  0  0  0
    5.4128    1.2024   -0.0000 C   0  0  0  0  0  0  0  0  0  0  0  0
    5.2437   -0.4067   -0.0000 N   0  0  0  0  0  0  0  0  0  0  0  0
    3.4641   -0.5000   -0.0000 C   0  0  0  0  0  0  0  0  0  0  0  0
    5.9128    0.3364   -0.0000 C   0  0  0  0  0  0  0  0  0  0  0  0
    3.4641   -1.5000   -0.0000 O   0  0  0  0  0  0  0  0  0  0  0  0
    2.5981   -0.0000   -0.0000 N   0  0  0  0  0  0  0  0  0  0  0  0
    6.9073    0.2319   -0.0000 C   0  0  0  0  0  0  0  0  0  0  0  0
    1.7321   -0.5000   -0.0000 N   0  0  0  0  0  0  0  0  0  0  0  0
    7.3141   -0.6817   -0.0000 C   0  0  0  0  0  0  0  0  0  0  0  0
    7.4951    1.0409   -0.0000 C   0  0  0  0  0  0  0  0  0  0  0  0
    0.8660   -0.0000   -0.0000 C   0  0  0  0  0  0  0  0  0  0  0  0
    6.7263   -1.4907   -0.0000 O   0  0  0  0  0  0  0  0  0  0  0  0
    8.3086   -0.7862   -0.0000 O   0  0  0  0  0  0  0  0  0  0  0  0
    8.4896    0.9364   -0.0000 C   0  0  0  0  0  0  0  0  0  0  0  0
    0.0000   -0.5000   -0.0000 C   0  0  0  0  0  0  0  0  0  0  0  0
    8.8964    0.0228   -0.0000 C   0  0  0  0  0  0  0  0  0  0  0  0
    9.0774    1.7454   -0.0000 C   0  0  0  0  0  0  0  0  0  0  0  0
   -0.8660    0.0000   -0.0000 C   0  0  0  0  0  0  0  0  0  0  0  0
   -0.0000   -1.5000   -0.0000 C   0  0  0  0  0  0  0  0  0  0  0  0
    9.8909   -0.0817   -0.0000 C   0  0  0  0  0  0  0  0  0  0  0  0
   10.0719    1.6409   -0.0000 C   0  0  0  0  0  0  0  0  0  0  0  0
   -0.8660    1.0000   -0.0000 O   0  0  0  0  0  0  0  0  0  0  0  0
   -1.7321   -0.5000   -0.0000 C   0  0  0  0  0  0  0  0  0  0  0  0
   -0.8660   -2.0000   -0.0000 C   0  0  0  0  0  0  0  0  0  0  0  0
   10.4787    0.7273   -0.0000 C   0  0  0  0  0  0  0  0  0  0  0  0
   -1.7321    1.5000   -0.0000 C   0  0  0  0  0  0  0  0  0  0  0  0
   -1.7321   -1.5000   -0.0000 C   0  0  0  0  0  0  0  0  0  0  0  0
  1  2  1  0  0  0  0
  1  3  1  0  0  0  0
  2  4  2  0  0  0  0
  2  5  1  0  0  0  0
  3  6  2  0  0  0  0
  5  7  2  0  0  0  0
  5  8  1  0  0  0  0
  6  9  1  0  0  0  0
  8 10  1  0  0  0  0
  9 11  1  0  0  0  0
  9 12  2  0  0  0  0
 10 13  2  0  0  0  0
 11 14  2  0  0  0  0
 11 15  1  0  0  0  0
 12 16  1  0  0  0  0
 13 17  1  0  0  0  0
 15 18  1  0  0  0  0
 16 19  1  0  0  0  0
 17 20  2  0  0  0  0
 17 21  1  0  0  0  0
 18 22  1  0  0  0  0
 19 23  2  0  0  0  0
 20 24  1  0  0  0  0
 20 25  1  0  0  0  0
 21 26  2  0  0  0  0
 22 27  2  0  0  0  0
 24 28  1  0  0  0  0
 25 29  2  0  0  0  0
  4  6  1  0  0  0  0
 16 18  2  0  0  0  0
 23 27  1  0  0  0  0
 26 29  1  0  0  0  0
M  END
>  <S/N>
195

>  <Compound ID>
C_210

>  <PubChem CID>
119081265

>  <Isomeric SMILES>
COC1=CC=CC=C1/C=N/NC(=O)C2=NC(=CS2)C3=CC4=CC=CC=C4OC3=O

>  <IC50 (�M)>
6.2

>  <pIC50>
5.21

$$$$
C_211
Actelion Java MolfileCreator 1.0

 28 31  0  0  0  0  0  0  0  0999 V2000
    4.4347    0.9945   -0.0000 S   0  0  0  0  0  0  0  0  0  0  0  0
    4.3301   -0.0000   -0.0000 C   0  0  0  0  0  0  0  0  0  0  0  0
    5.4128    1.2024   -0.0000 C   0  0  0  0  0  0  0  0  0  0  0  0
    5.2437   -0.4067   -0.0000 N   0  0  0  0  0  0  0  0  0  0  0  0
    3.4641   -0.5000   -0.0000 C   0  0  0  0  0  0  0  0  0  0  0  0
    5.9128    0.3364   -0.0000 C   0  0  0  0  0  0  0  0  0  0  0  0
    3.4641   -1.5000   -0.0000 O   0  0  0  0  0  0  0  0  0  0  0  0
    2.5981   -0.0000   -0.0000 N   0  0  0  0  0  0  0  0  0  0  0  0
    6.9073    0.2319   -0.0000 C   0  0  0  0  0  0  0  0  0  0  0  0
    1.7321   -0.5000   -0.0000 N   0  0  0  0  0  0  0  0  0  0  0  0
    7.3141   -0.6817   -0.0000 C   0  0  0  0  0  0  0  0  0  0  0  0
    7.4951    1.0409   -0.0000 C   0  0  0  0  0  0  0  0  0  0  0  0
    0.8660   -0.0000   -0.0000 C   0  0  0  0  0  0  0  0  0  0  0  0
    6.7263   -1.4907   -0.0000 O   0  0  0  0  0  0  0  0  0  0  0  0
    8.3086   -0.7862   -0.0000 O   0  0  0  0  0  0  0  0  0  0  0  0
    8.4896    0.9364   -0.0000 C   0  0  0  0  0  0  0  0  0  0  0  0
    0.0000   -0.5000   -0.0000 C   0  0  0  0  0  0  0  0  0  0  0  0
    8.8964    0.0228   -0.0000 C   0  0  0  0  0  0  0  0  0  0  0  0
    9.0774    1.7454   -0.0000 C   0  0  0  0  0  0  0  0  0  0  0  0
   -0.8660    0.0000   -0.0000 C   0  0  0  0  0  0  0  0  0  0  0  0
   -0.0000   -1.5000   -0.0000 C   0  0  0  0  0  0  0  0  0  0  0  0
    9.8909   -0.0817   -0.0000 C   0  0  0  0  0  0  0  0  0  0  0  0
   10.0719    1.6409   -0.0000 C   0  0  0  0  0  0  0  0  0  0  0  0
   -1.7321   -0.5000   -0.0000 C   0  0  0  0  0  0  0  0  0  0  0  0
   -0.8660   -2.0000   -0.0000 C   0  0  0  0  0  0  0  0  0  0  0  0
   10.4787    0.7273   -0.0000 C   0  0  0  0  0  0  0  0  0  0  0  0
   -2.5981    0.0000   -0.0000 F   0  0  0  0  0  0  0  0  0  0  0  0
   -1.7321   -1.5000   -0.0000 C   0  0  0  0  0  0  0  0  0  0  0  0
  1  2  1  0  0  0  0
  1  3  1  0  0  0  0
  2  4  2  0  0  0  0
  2  5  1  0  0  0  0
  3  6  2  0  0  0  0
  5  7  2  0  0  0  0
  5  8  1  0  0  0  0
  6  9  1  0  0  0  0
  8 10  1  0  0  0  0
  9 11  1  0  0  0  0
  9 12  2  0  0  0  0
 10 13  2  0  0  0  0
 11 14  2  0  0  0  0
 11 15  1  0  0  0  0
 12 16  1  0  0  0  0
 13 17  1  0  0  0  0
 15 18  1  0  0  0  0
 16 19  1  0  0  0  0
 17 20  2  0  0  0  0
 17 21  1  0  0  0  0
 18 22  1  0  0  0  0
 19 23  2  0  0  0  0
 20 24  1  0  0  0  0
 21 25  2  0  0  0  0
 22 26  2  0  0  0  0
 24 27  1  0  0  0  0
 24 28  2  0  0  0  0
  4  6  1  0  0  0  0
 16 18  2  0  0  0  0
 23 26  1  0  0  0  0
 25 28  1  0  0  0  0
M  END
>  <S/N>
196

>  <Compound ID>
C_211

>  <PubChem CID>
121225769

>  <Isomeric SMILES>
C1=CC=C2C(=C1)C=C(C(=O)O2)C3=CSC(=N3)C(=O)N/N=C/C4=CC(=CC=C4)F

>  <IC50 (�M)>
6.2

>  <pIC50>
5.21

$$$$
C_212
Actelion Java MolfileCreator 1.0

 25 27  0  0  0  0  0  0  0  0999 V2000
   11.6913    1.5000   -0.0000 O   0  0  0  0  0  0  0  0  0  0  0  0
   10.3923    2.2500   -0.0000 N   0  0  0  0  0  0  0  0  0  0  0  0
   10.3923    3.7500   -0.0000 O   0  0  0  0  0  0  0  0  0  0  0  0
    9.0933    1.5000   -0.0000 C   0  0  0  0  0  0  0  0  0  0  0  0
    7.7942    2.2500   -0.0000 C   0  0  0  0  0  0  0  0  0  0  0  0
    9.0933   -0.0000   -0.0000 C   0  0  0  0  0  0  0  0  0  0  0  0
    6.4952    1.5000   -0.0000 C   0  0  0  0  0  0  0  0  0  0  0  0
    7.7942   -0.7500   -0.0000 C   0  0  0  0  0  0  0  0  0  0  0  0
    6.4952   -0.0000   -0.0000 C   0  0  0  0  0  0  0  0  0  0  0  0
    5.1962   -0.7500   -0.0000 C   0  0  0  0  0  0  0  0  0  0  0  0
    3.8971   -0.0000   -0.0000 N   0  0  0  0  0  0  0  0  0  0  0  0
    2.5981   -0.7500   -0.0000 N   0  0  0  0  0  0  0  0  0  0  0  0
    1.2990   -0.0000   -0.0000 C   0  0  0  0  0  0  0  0  0  0  0  0
    1.2990    1.5000   -0.0000 O   0  0  0  0  0  0  0  0  0  0  0  0
    0.0000   -0.7500   -0.0000 C   0  0  0  0  0  0  0  0  0  0  0  0
   -1.2990    0.0000   -0.0000 C   0  0  0  0  0  0  0  0  0  0  0  0
   -0.0000   -2.2500   -0.0000 C   0  0  0  0  0  0  0  0  0  0  0  0
   -1.2990    1.5000   -0.0000 O   0  0  0  0  0  0  0  0  0  0  0  0
   -2.5981   -0.7500   -0.0000 O   0  0  0  0  0  0  0  0  0  0  0  0
   -1.2990   -3.0000   -0.0000 C   0  0  0  0  0  0  0  0  0  0  0  0
   -2.5981   -2.2500   -0.0000 C   0  0  0  0  0  0  0  0  0  0  0  0
   -1.2990   -4.5000   -0.0000 C   0  0  0  0  0  0  0  0  0  0  0  0
   -3.8971   -3.0000   -0.0000 C   0  0  0  0  0  0  0  0  0  0  0  0
   -2.5981   -5.2500   -0.0000 C   0  0  0  0  0  0  0  0  0  0  0  0
   -3.8971   -4.5000   -0.0000 C   0  0  0  0  0  0  0  0  0  0  0  0
  1  2  2  0  0  0  0
  2  3  1  0  0  0  0
  2  4  1  0  0  0  0
  4  5  2  0  0  0  0
  4  6  1  0  0  0  0
  5  7  1  0  0  0  0
  6  8  2  0  0  0  0
  7  9  2  0  0  0  0
  9 10  1  0  0  0  0
 10 11  2  0  0  0  0
 11 12  1  0  0  0  0
 12 13  1  0  0  0  0
 13 14  2  0  0  0  0
 13 15  1  0  0  0  0
 15 16  1  0  0  0  0
 15 17  2  0  0  0  0
 16 18  2  0  0  0  0
 16 19  1  0  0  0  0
 17 20  1  0  0  0  0
 19 21  1  0  0  0  0
 20 22  2  0  0  0  0
 21 23  2  0  0  0  0
 22 24  1  0  0  0  0
 23 25  1  0  0  0  0
  8  9  1  0  0  0  0
 20 21  1  0  0  0  0
 24 25  2  0  0  0  0
M  CHG  2   2   1   3  -1
M  END
>  <S/N>
197

>  <Compound ID>
C_212

>  <PubChem CID>
122181573

>  <Isomeric SMILES>
C1=CC=C2C(=C1)C=C(C(=O)O2)C(=O)N/N=C/C3=CC=C(C=C3)[N+](=O)[O-]

>  <IC50 (�M)>
1.1

>  <pIC50>
5.96

$$$$
C_213
Actelion Java MolfileCreator 1.0

 24 26  0  0  0  0  0  0  0  0999 V2000
    1.7321   -0.5000   -0.0000 O   0  0  0  0  0  0  0  0  0  0  0  0
    0.8660   -0.0000   -0.0000 C   0  0  0  0  0  0  0  0  0  0  0  0
    0.8660    1.0000   -0.0000 C   0  0  0  0  0  0  0  0  0  0  0  0
    0.0000   -0.5000   -0.0000 C   0  0  0  0  0  0  0  0  0  0  0  0
    1.7321    1.5000   -0.0000 C   0  0  0  0  0  0  0  0  0  0  0  0
    0.0000    1.5000   -0.0000 C   0  0  0  0  0  0  0  0  0  0  0  0
   -0.8660    0.0000   -0.0000 C   0  0  0  0  0  0  0  0  0  0  0  0
   -0.0000   -1.5000   -0.0000 C   0  0  0  0  0  0  0  0  0  0  0  0
    1.7321    2.5000   -0.0000 C   0  0  0  0  0  0  0  0  0  0  0  0
    0.0000    2.5000   -0.0000 C   0  0  0  0  0  0  0  0  0  0  0  0
   -0.8660    1.0000   -0.0000 O   0  0  0  0  0  0  0  0  0  0  0  0
   -1.7321   -0.5000   -0.0000 C   0  0  0  0  0  0  0  0  0  0  0  0
   -0.8660   -2.0000   -0.0000 C   0  0  0  0  0  0  0  0  0  0  0  0
    0.8660    3.0000   -0.0000 C   0  0  0  0  0  0  0  0  0  0  0  0
   -2.5981    0.0000   -0.0000 C   0  0  0  0  0  0  0  0  0  0  0  0
   -1.7321   -1.5000   -0.0000 C   0  0  0  0  0  0  0  0  0  0  0  0
   -3.4641   -0.5000   -0.0000 C   0  0  0  0  0  0  0  0  0  0  0  0
   -4.3301    0.0000   -0.0000 C   0  0  0  0  0  0  0  0  0  0  0  0
   -3.4641   -1.5000   -0.0000 C   0  0  0  0  0  0  0  0  0  0  0  0
   -5.1962   -0.5000   -0.0000 C   0  0  0  0  0  0  0  0  0  0  0  0
   -4.3301   -2.0000   -0.0000 C   0  0  0  0  0  0  0  0  0  0  0  0
   -6.0622    0.0000   -0.0000 O   0  0  0  0  0  0  0  0  0  0  0  0
   -5.1962   -1.5000   -0.0000 C   0  0  0  0  0  0  0  0  0  0  0  0
   -6.0622   -2.0000   -0.0000 O   0  0  0  0  0  0  0  0  0  0  0  0
  1  2  2  0  0  0  0
  2  3  1  0  0  0  0
  2  4  1  0  0  0  0
  3  5  2  0  0  0  0
  3  6  1  0  0  0  0
  4  7  2  0  0  0  0
  4  8  1  0  0  0  0
  5  9  1  0  0  0  0
  6 10  2  0  0  0  0
  7 11  1  0  0  0  0
  7 12  1  0  0  0  0
  8 13  1  0  0  0  0
  9 14  2  0  0  0  0
 12 15  2  0  0  0  0
 12 16  1  0  0  0  0
 15 17  1  0  0  0  0
 17 18  2  0  0  0  0
 17 19  1  0  0  0  0
 18 20  1  0  0  0  0
 19 21  2  0  0  0  0
 20 22  1  0  0  0  0
 20 23  2  0  0  0  0
 23 24  1  0  0  0  0
 10 14  1  0  0  0  0
 13 16  1  0  0  0  0
 21 23  1  0  0  0  0
M  END
>  <S/N>
198

>  <Compound ID>
C_213

>  <PubChem CID>
122185117

>  <Isomeric SMILES>
C1C/C(=C\C2=CC(=C(C=C2)O)O)/C(=C(C1)C(=O)C3=CC=CC=C3)O

>  <IC50 (�M)>
41

>  <pIC50>
4.39

$$$$
C_214
Actelion Java MolfileCreator 1.0

 42 48  0  0  0  0  0  0  0  0999 V2000
   -5.4348   -7.4248   -0.0000 F   0  0  0  0  0  0  0  0  0  0  0  0
   -4.0644   -8.0349   -0.0000 C   0  0  0  0  0  0  0  0  0  0  0  0
   -4.6745   -9.4052   -0.0000 F   0  0  0  0  0  0  0  0  0  0  0  0
   -2.6941   -8.6450   -0.0000 F   0  0  0  0  0  0  0  0  0  0  0  0
   -3.4543   -6.6646   -0.0000 C   0  0  0  0  0  0  0  0  0  0  0  0
   -4.3360   -5.4511   -0.0000 C   0  0  0  0  0  0  0  0  0  0  0  0
   -1.9625   -6.5078   -0.0000 C   0  0  0  0  0  0  0  0  0  0  0  0
   -3.7259   -4.0808   -0.0000 C   0  0  0  0  0  0  0  0  0  0  0  0
   -1.3524   -5.1375   -0.0000 C   0  0  0  0  0  0  0  0  0  0  0  0
   -2.2341   -3.9240   -0.0000 C   0  0  0  0  0  0  0  0  0  0  0  0
   -1.6240   -2.5537   -0.0000 C   0  0  0  0  0  0  0  0  0  0  0  0
   -2.3740   -1.2546   -0.0000 N   0  0  0  0  0  0  0  0  0  0  0  0
   -0.1568   -2.2418   -0.0000 C   0  0  0  0  0  0  0  0  0  0  0  0
   -1.3703   -0.1399   -0.0000 C   0  0  0  0  0  0  0  0  0  0  0  0
    0.9579   -3.2455   -0.0000 C   0  0  0  0  0  0  0  0  0  0  0  0
    0.0000   -0.7500   -0.0000 C   0  0  0  0  0  0  0  0  0  0  0  0
   -1.5271    1.3519   -0.0000 C   0  0  0  0  0  0  0  0  0  0  0  0
    0.8011   -4.7373   -0.0000 N   0  0  0  0  0  0  0  0  0  0  0  0
    2.4251   -2.9336   -0.0000 N   0  0  0  0  0  0  0  0  0  0  0  0
    1.2135    0.1317   -0.0000 C   0  0  0  0  0  0  0  0  0  0  0  0
   -0.3136    2.2336   -0.0000 C   0  0  0  0  0  0  0  0  0  0  0  0
    2.1715   -5.3474   -0.0000 C   0  0  0  0  0  0  0  0  0  0  0  0
    3.0353   -1.5633   -0.0000 C   0  0  0  0  0  0  0  0  0  0  0  0
    3.1751   -4.2326   -0.0000 C   0  0  0  0  0  0  0  0  0  0  0  0
    1.0567    1.6235   -0.0000 C   0  0  0  0  0  0  0  0  0  0  0  0
    2.4833   -6.8146   -0.0000 C   0  0  0  0  0  0  0  0  0  0  0  0
    4.5270   -1.4065   -0.0000 C   0  0  0  0  0  0  0  0  0  0  0  0
    2.1536   -0.3498   -0.0000 C   0  0  0  0  0  0  0  0  0  0  0  0
    4.6669   -4.3894   -0.0000 C   0  0  0  0  0  0  0  0  0  0  0  0
    1.3686   -7.8183   -0.0000 C   0  0  0  0  0  0  0  0  0  0  0  0
    3.9099   -7.2781   -0.0000 C   0  0  0  0  0  0  0  0  0  0  0  0
    5.1371   -0.0362   -0.0000 C   0  0  0  0  0  0  0  0  0  0  0  0
    2.7637    1.0206   -0.0000 C   0  0  0  0  0  0  0  0  0  0  0  0
    5.2770   -5.7598   -0.0000 C   0  0  0  0  0  0  0  0  0  0  0  0
    5.5486   -3.1759   -0.0000 C   0  0  0  0  0  0  0  0  0  0  0  0
    1.6805   -9.2855   -0.0000 C   0  0  0  0  0  0  0  0  0  0  0  0
    4.2218   -8.7453   -0.0000 C   0  0  0  0  0  0  0  0  0  0  0  0
    4.2555    1.1773   -0.0000 C   0  0  0  0  0  0  0  0  0  0  0  0
    6.7688   -5.9166   -0.0000 C   0  0  0  0  0  0  0  0  0  0  0  0
    7.0404   -3.3327   -0.0000 C   0  0  0  0  0  0  0  0  0  0  0  0
    3.1071   -9.7490   -0.0000 C   0  0  0  0  0  0  0  0  0  0  0  0
    7.6505   -4.7030   -0.0000 C   0  0  0  0  0  0  0  0  0  0  0  0
  1  2  1  0  0  0  0
  2  3  1  0  0  0  0
  2  4  1  0  0  0  0
  2  5  1  0  0  0  0
  5  6  2  0  0  0  0
  5  7  1  0  0  0  0
  6  8  1  0  0  0  0
  7  9  2  0  0  0  0
  8 10  2  0  0  0  0
 10 11  1  0  0  0  0
 11 12  1  0  0  0  0
 11 13  2  0  0  0  0
 12 14  1  0  0  0  0
 13 15  1  0  0  0  0
 13 16  1  0  0  0  0
 14 17  2  0  0  0  0
 15 18  2  0  0  0  0
 15 19  1  0  0  0  0
 16 20  2  0  0  0  0
 17 21  1  0  0  0  0
 18 22  1  0  0  0  0
 19 23  1  0  0  0  0
 19 24  1  0  0  0  0
 20 25  1  0  0  0  0
 22 26  1  0  0  0  0
 23 27  2  0  0  0  0
 23 28  1  0  0  0  0
 24 29  1  0  0  0  0
 26 30  2  0  0  0  0
 26 31  1  0  0  0  0
 27 32  1  0  0  0  0
 28 33  2  0  0  0  0
 29 34  2  0  0  0  0
 29 35  1  0  0  0  0
 30 36  1  0  0  0  0
 31 37  2  0  0  0  0
 32 38  2  0  0  0  0
 34 39  1  0  0  0  0
 35 40  2  0  0  0  0
 36 41  2  0  0  0  0
 39 42  2  0  0  0  0
  9 10  1  0  0  0  0
 14 16  1  0  0  0  0
 21 25  2  0  0  0  0
 22 24  2  0  0  0  0
 33 38  1  0  0  0  0
 37 41  1  0  0  0  0
 40 42  1  0  0  0  0
M  END
>  <S/N>
199

>  <Compound ID>
C_214

>  <PubChem CID>
122191974

>  <Isomeric SMILES>
C1=CC=C(C=C1)C2=C(N(C(=N2)C3=C(NC4=CC=CC=C43)C5=CC=C(C=C5)C(F)(F)F)C6=CC=CC=C6)C7=CC=CC=C7

>  <IC50 (�M)>
8.3

>  <pIC50>
5.08

$$$$
C_215
Actelion Java MolfileCreator 1.0

 26 29  0  0  1  0  0  0  0  0999 V2000
    2.5981    1.0000   -0.0000 O   0  0  0  0  0  0  0  0  0  0  0  0
    2.5981   -0.0000   -0.0000 C   0  0  0  0  0  0  0  0  0  0  0  0
    3.4641   -0.5000   -0.0000 C   0  0  0  0  0  0  0  0  0  0  0  0
    1.7321   -0.5000   -0.0000 C   0  0  0  0  0  0  0  0  0  0  0  0
    4.3301    0.0000   -0.0000 C   0  0  0  0  0  0  0  0  0  0  0  0
    3.4641   -1.5000   -0.0000 C   0  0  0  0  0  0  0  0  0  0  0  0
    0.8660   -0.0000   -0.0000 C   0  0  0  0  0  0  0  0  0  0  0  0
    5.1962   -0.5000   -0.0000 C   0  0  0  0  0  0  0  0  0  0  0  0
    4.3301   -2.0000   -0.0000 C   0  0  0  0  0  0  0  0  0  0  0  0
    0.8660    1.0000   -0.0000 C   0  0  0  0  0  0  0  0  0  0  0  0
    0.0000   -0.5000   -0.0000 C   0  0  0  0  0  0  0  0  0  0  0  0
    5.1962   -1.5000   -0.0000 C   0  0  0  0  0  0  0  0  0  0  0  0
    1.7321    1.5000   -0.0000 C   0  0  0  0  0  0  0  0  0  0  0  0
    0.0000    1.5000   -0.0000 C   0  0  0  0  0  0  0  0  0  0  0  0
   -0.9135   -0.0933   -0.0000 C   0  0  0  0  0  0  0  0  0  0  0  0
   -0.1045   -1.4945   -0.0000 C   0  0  0  0  0  0  0  0  0  0  0  0
    1.7321    2.5000   -0.0000 C   0  0  0  0  0  0  0  0  0  0  0  0
    0.0000    2.5000   -0.0000 C   0  0  0  0  0  0  0  0  0  0  0  0
   -1.5827   -0.8364   -0.0000 C   0  0  0  0  0  0  0  0  0  0  0  0
   -1.2226    0.8578   -0.0000 C   0  0  0  0  0  0  0  0  0  0  0  0
   -1.0827   -1.7024   -0.0000 N   0  0  0  0  0  0  0  0  0  0  0  0
    0.8660    3.0000   -0.0000 C   0  0  0  0  0  0  0  0  0  0  0  0
   -2.5608   -0.6285   -0.0000 C   0  0  0  0  0  0  0  0  0  0  0  0
   -2.2007    1.0657   -0.0000 C   0  0  0  0  0  0  0  0  0  0  0  0
    0.8660    4.0000   -0.0000 C   0  0  0  0  0  0  0  0  0  0  0  0
   -2.8698    0.3226   -0.0000 C   0  0  0  0  0  0  0  0  0  0  0  0
  1  2  2  0  0  0  0
  2  3  1  0  0  0  0
  2  4  1  0  0  0  0
  3  5  2  0  0  0  0
  3  6  1  0  0  0  0
  7  4  1  6  0  0  0
  5  8  1  0  0  0  0
  6  9  2  0  0  0  0
  7 10  1  0  0  0  0
  7 11  1  0  0  0  0
  8 12  2  0  0  0  0
 10 13  2  0  0  0  0
 10 14  1  0  0  0  0
 11 15  1  0  0  0  0
 11 16  2  0  0  0  0
 13 17  1  0  0  0  0
 14 18  2  0  0  0  0
 15 19  2  0  0  0  0
 15 20  1  0  0  0  0
 16 21  1  0  0  0  0
 17 22  2  0  0  0  0
 19 23  1  0  0  0  0
 20 24  2  0  0  0  0
 22 25  1  0  0  0  0
 23 26  2  0  0  0  0
  9 12  1  0  0  0  0
 18 22  1  0  0  0  0
 19 21  1  0  0  0  0
 24 26  1  0  0  0  0
M  END
>  <S/N>
200

>  <Compound ID>
C_215

>  <PubChem CID>
126715487

>  <Isomeric SMILES>
CC1=CC=C(C=C1)[C@H](CC(=O)C2=CC=CC=C2)C3=CNC4=CC=CC=C43

>  <IC50 (�M)>
4.3

>  <pIC50>
5.37

$$$$
C_216
Actelion Java MolfileCreator 1.0

 31 35  0  0  1  0  0  0  0  0999 V2000
    0.8660   -2.0000   -0.0000 O   0  0  0  0  0  0  0  0  0  0  0  0
    1.7321   -1.5000   -0.0000 C   0  0  0  0  0  0  0  0  0  0  0  0
    2.5981   -2.0000   -0.0000 C   0  0  0  0  0  0  0  0  0  0  0  0
    1.7321   -0.5000   -0.0000 C   0  0  0  0  0  0  0  0  0  0  0  0
    3.4641   -1.5000   -0.0000 C   0  0  0  0  0  0  0  0  0  0  0  0
    2.5981   -3.0000   -0.0000 C   0  0  0  0  0  0  0  0  0  0  0  0
    0.8660   -0.0000   -0.0000 C   0  0  0  0  0  0  0  0  0  0  0  0
    4.3301   -2.0000   -0.0000 C   0  0  0  0  0  0  0  0  0  0  0  0
    3.4641   -3.5000   -0.0000 C   0  0  0  0  0  0  0  0  0  0  0  0
    0.8660    1.0000   -0.0000 C   0  0  0  0  0  0  0  0  0  0  0  0
    0.0000   -0.5000   -0.0000 C   0  0  0  0  0  0  0  0  0  0  0  0
    4.3301   -3.0000   -0.0000 C   0  0  0  0  0  0  0  0  0  0  0  0
    5.1962   -1.5000   -0.0000 C   0  0  0  0  0  0  0  0  0  0  0  0
    1.7321    1.5000   -0.0000 C   0  0  0  0  0  0  0  0  0  0  0  0
   -0.0000    1.5000   -0.0000 C   0  0  0  0  0  0  0  0  0  0  0  0
   -0.9135   -0.0933   -0.0000 C   0  0  0  0  0  0  0  0  0  0  0  0
   -0.1045   -1.4945   -0.0000 C   0  0  0  0  0  0  0  0  0  0  0  0
    5.1962   -3.5000   -0.0000 C   0  0  0  0  0  0  0  0  0  0  0  0
    6.0622   -2.0000   -0.0000 C   0  0  0  0  0  0  0  0  0  0  0  0
    1.7321    2.5000   -0.0000 C   0  0  0  0  0  0  0  0  0  0  0  0
   -0.0000    2.5000   -0.0000 C   0  0  0  0  0  0  0  0  0  0  0  0
   -1.5827   -0.8364   -0.0000 C   0  0  0  0  0  0  0  0  0  0  0  0
   -1.2226    0.8578   -0.0000 C   0  0  0  0  0  0  0  0  0  0  0  0
   -1.0827   -1.7024   -0.0000 N   0  0  0  0  0  0  0  0  0  0  0  0
    6.0622   -3.0000   -0.0000 C   0  0  0  0  0  0  0  0  0  0  0  0
    0.8660    3.0000   -0.0000 C   0  0  0  0  0  0  0  0  0  0  0  0
   -2.5608   -0.6285   -0.0000 C   0  0  0  0  0  0  0  0  0  0  0  0
   -2.2007    1.0657   -0.0000 C   0  0  0  0  0  0  0  0  0  0  0  0
    0.8660    4.0000   -0.0000 O   0  0  0  0  0  0  0  0  0  0  0  0
   -2.8698    0.3226   -0.0000 C   0  0  0  0  0  0  0  0  0  0  0  0
   -0.0000    4.5000   -0.0000 C   0  0  0  0  0  0  0  0  0  0  0  0
  1  2  2  0  0  0  0
  2  3  1  0  0  0  0
  2  4  1  0  0  0  0
  3  5  2  0  0  0  0
  3  6  1  0  0  0  0
  7  4  1  6  0  0  0
  5  8  1  0  0  0  0
  6  9  2  0  0  0  0
  7 10  1  0  0  0  0
  7 11  1  0  0  0  0
  8 12  2  0  0  0  0
  8 13  1  0  0  0  0
 10 14  2  0  0  0  0
 10 15  1  0  0  0  0
 11 16  1  0  0  0  0
 11 17  2  0  0  0  0
 12 18  1  0  0  0  0
 13 19  2  0  0  0  0
 14 20  1  0  0  0  0
 15 21  2  0  0  0  0
 16 22  2  0  0  0  0
 16 23  1  0  0  0  0
 17 24  1  0  0  0  0
 18 25  2  0  0  0  0
 20 26  2  0  0  0  0
 22 27  1  0  0  0  0
 23 28  2  0  0  0  0
 26 29  1  0  0  0  0
 27 30  2  0  0  0  0
 29 31  1  0  0  0  0
  9 12  1  0  0  0  0
 19 25  1  0  0  0  0
 21 26  1  0  0  0  0
 22 24  1  0  0  0  0
 28 30  1  0  0  0  0
M  END
>  <S/N>
201

>  <Compound ID>
C_216

>  <PubChem CID>
126715488

>  <Isomeric SMILES>
COC1=CC=C(C=C1)[C@H](CC(=O)C2=CC3=CC=CC=C3C=C2)C4=CNC5=CC=CC=C54

>  <IC50 (�M)>
4.3

>  <pIC50>
5.37

$$$$
C_217
Actelion Java MolfileCreator 1.0

 24 27  0  0  1  0  0  0  0  0999 V2000
    6.5665   -0.1399   -0.0000 S   0  0  0  0  0  0  0  0  0  0  0  0
    5.1962   -0.7500   -0.0000 C   0  0  0  0  0  0  0  0  0  0  0  0
    7.5702   -1.2546   -0.0000 C   0  0  0  0  0  0  0  0  0  0  0  0
    5.3529   -2.2418   -0.0000 C   0  0  0  0  0  0  0  0  0  0  0  0
    3.8971   -0.0000   -0.0000 C   0  0  0  0  0  0  0  0  0  0  0  0
    6.8202   -2.5537   -0.0000 C   0  0  0  0  0  0  0  0  0  0  0  0
    3.8971    1.5000   -0.0000 C   0  0  0  0  0  0  0  0  0  0  0  0
    2.5981   -0.7500   -0.0000 C   0  0  0  0  0  0  0  0  0  0  0  0
    5.1106    2.3817   -0.0000 C   0  0  0  0  0  0  0  0  0  0  0  0
    2.6836    2.3817   -0.0000 C   0  0  0  0  0  0  0  0  0  0  0  0
    1.2990   -0.0000   -0.0000 C   0  0  0  0  0  0  0  0  0  0  0  0
    4.6471    3.8083   -0.0000 C   0  0  0  0  0  0  0  0  0  0  0  0
    6.5779    2.0698   -0.0000 C   0  0  0  0  0  0  0  0  0  0  0  0
    3.1471    3.8083   -0.0000 N   0  0  0  0  0  0  0  0  0  0  0  0
    1.2990    1.5000   -0.0000 O   0  0  0  0  0  0  0  0  0  0  0  0
    0.0000   -0.7500   -0.0000 C   0  0  0  0  0  0  0  0  0  0  0  0
    5.6508    4.9230   -0.0000 C   0  0  0  0  0  0  0  0  0  0  0  0
    7.5816    3.1845   -0.0000 C   0  0  0  0  0  0  0  0  0  0  0  0
   -1.2990    0.0000   -0.0000 C   0  0  0  0  0  0  0  0  0  0  0  0
   -0.0000   -2.2500   -0.0000 C   0  0  0  0  0  0  0  0  0  0  0  0
    7.1180    4.6111   -0.0000 C   0  0  0  0  0  0  0  0  0  0  0  0
   -2.5981   -0.7500   -0.0000 C   0  0  0  0  0  0  0  0  0  0  0  0
   -1.2990   -3.0000   -0.0000 C   0  0  0  0  0  0  0  0  0  0  0  0
   -2.5981   -2.2500   -0.0000 C   0  0  0  0  0  0  0  0  0  0  0  0
  1  2  1  0  0  0  0
  1  3  1  0  0  0  0
  2  4  2  0  0  0  0
  2  5  1  0  0  0  0
  3  6  2  0  0  0  0
  5  7  1  0  0  0  0
  5  8  1  6  0  0  0
  7  9  1  0  0  0  0
  7 10  2  0  0  0  0
  8 11  1  0  0  0  0
  9 12  2  0  0  0  0
  9 13  1  0  0  0  0
 10 14  1  0  0  0  0
 11 15  2  0  0  0  0
 11 16  1  0  0  0  0
 12 17  1  0  0  0  0
 13 18  2  0  0  0  0
 16 19  2  0  0  0  0
 16 20  1  0  0  0  0
 17 21  2  0  0  0  0
 19 22  1  0  0  0  0
 20 23  2  0  0  0  0
 22 24  2  0  0  0  0
  4  6  1  0  0  0  0
 12 14  1  0  0  0  0
 18 21  1  0  0  0  0
 23 24  1  0  0  0  0
M  END
>  <S/N>
202

>  <Compound ID>
C_217

>  <PubChem CID>
126715493

>  <Isomeric SMILES>
C1=CC=C(C=C1)C(=O)C[C@@H](C2=CC=CS2)C3=CNC4=CC=CC=C43

>  <IC50 (�M)>
4.3

>  <pIC50>
5.37

$$$$
C_218
Actelion Java MolfileCreator 1.0

 30 34  0  0  1  0  0  0  0  0999 V2000
    9.0933   -3.0000   -0.0000 Cl  0  0  0  0  0  0  0  0  0  0  0  0
    7.7942   -2.2500   -0.0000 C   0  0  0  0  0  0  0  0  0  0  0  0
    7.7942   -0.7500   -0.0000 C   0  0  0  0  0  0  0  0  0  0  0  0
    6.4952   -3.0000   -0.0000 C   0  0  0  0  0  0  0  0  0  0  0  0
    6.4952    0.0000   -0.0000 C   0  0  0  0  0  0  0  0  0  0  0  0
    5.1962   -2.2500   -0.0000 C   0  0  0  0  0  0  0  0  0  0  0  0
    5.1962   -0.7500   -0.0000 C   0  0  0  0  0  0  0  0  0  0  0  0
    3.8971   -0.0000   -0.0000 C   0  0  0  0  0  0  0  0  0  0  0  0
    3.8971    1.5000   -0.0000 C   0  0  0  0  0  0  0  0  0  0  0  0
    2.5981   -0.7500   -0.0000 C   0  0  0  0  0  0  0  0  0  0  0  0
    5.1106    2.3817   -0.0000 C   0  0  0  0  0  0  0  0  0  0  0  0
    2.6836    2.3817   -0.0000 C   0  0  0  0  0  0  0  0  0  0  0  0
    1.2990   -0.0000   -0.0000 C   0  0  0  0  0  0  0  0  0  0  0  0
    4.6471    3.8083   -0.0000 C   0  0  0  0  0  0  0  0  0  0  0  0
    6.5779    2.0698   -0.0000 C   0  0  0  0  0  0  0  0  0  0  0  0
    3.1471    3.8083   -0.0000 N   0  0  0  0  0  0  0  0  0  0  0  0
    1.2990    1.5000   -0.0000 O   0  0  0  0  0  0  0  0  0  0  0  0
    0.0000   -0.7500   -0.0000 C   0  0  0  0  0  0  0  0  0  0  0  0
    5.6508    4.9230   -0.0000 C   0  0  0  0  0  0  0  0  0  0  0  0
    7.5816    3.1845   -0.0000 C   0  0  0  0  0  0  0  0  0  0  0  0
   -1.2990    0.0000   -0.0000 C   0  0  0  0  0  0  0  0  0  0  0  0
   -0.0000   -2.2500   -0.0000 C   0  0  0  0  0  0  0  0  0  0  0  0
    7.1180    4.6111   -0.0000 C   0  0  0  0  0  0  0  0  0  0  0  0
   -2.5981   -0.7500   -0.0000 C   0  0  0  0  0  0  0  0  0  0  0  0
   -1.2990   -3.0000   -0.0000 C   0  0  0  0  0  0  0  0  0  0  0  0
   -2.5981   -2.2500   -0.0000 C   0  0  0  0  0  0  0  0  0  0  0  0
   -3.8971    0.0000   -0.0000 C   0  0  0  0  0  0  0  0  0  0  0  0
   -3.8971   -3.0000   -0.0000 C   0  0  0  0  0  0  0  0  0  0  0  0
   -5.1962   -0.7500   -0.0000 C   0  0  0  0  0  0  0  0  0  0  0  0
   -5.1962   -2.2500   -0.0000 C   0  0  0  0  0  0  0  0  0  0  0  0
  1  2  1  0  0  0  0
  2  3  2  0  0  0  0
  2  4  1  0  0  0  0
  3  5  1  0  0  0  0
  4  6  2  0  0  0  0
  5  7  2  0  0  0  0
  7  8  1  0  0  0  0
  8  9  1  0  0  0  0
  8 10  1  6  0  0  0
  9 11  1  0  0  0  0
  9 12  2  0  0  0  0
 10 13  1  0  0  0  0
 11 14  2  0  0  0  0
 11 15  1  0  0  0  0
 12 16  1  0  0  0  0
 13 17  2  0  0  0  0
 13 18  1  0  0  0  0
 14 19  1  0  0  0  0
 15 20  2  0  0  0  0
 18 21  2  0  0  0  0
 18 22  1  0  0  0  0
 19 23  2  0  0  0  0
 21 24  1  0  0  0  0
 22 25  2  0  0  0  0
 24 26  2  0  0  0  0
 24 27  1  0  0  0  0
 26 28  1  0  0  0  0
 27 29  2  0  0  0  0
 28 30  2  0  0  0  0
  6  7  1  0  0  0  0
 14 16  1  0  0  0  0
 20 23  1  0  0  0  0
 25 26  1  0  0  0  0
 29 30  1  0  0  0  0
M  END
>  <S/N>
203

>  <Compound ID>
C_218

>  <PubChem CID>
126715501

>  <Isomeric SMILES>
C1=CC=C2C=C(C=CC2=C1)C(=O)C[C@@H](C3=CC=C(C=C3)Cl)C4=CNC5=CC=CC=C54

>  <IC50 (�M)>
4.3

>  <pIC50>
5.37

$$$$
C_219
Actelion Java MolfileCreator 1.0

 42 49  0  0  0  0  0  0  0  0999 V2000
    2.6012   -5.4022   -0.0000 O   0  0  0  0  0  0  0  0  0  0  0  0
    4.0992   -5.2447   -0.0000 C   0  0  0  0  0  0  0  0  0  0  0  0
    5.1070   -6.3641   -0.0000 N   0  0  0  0  0  0  0  0  0  0  0  0
    4.8523   -3.9403   -0.0000 C   0  0  0  0  0  0  0  0  0  0  0  0
    6.4830   -5.7514   -0.0000 C   0  0  0  0  0  0  0  0  0  0  0  0
    6.3256   -4.2534   -0.0000 C   0  0  0  0  0  0  0  0  0  0  0  0
    4.2396   -2.5643   -0.0000 C   0  0  0  0  0  0  0  0  0  0  0  0
    5.8002   -2.7697   -0.0000 C   0  0  0  0  0  0  0  0  0  0  0  0
    7.8590   -6.3641   -0.0000 C   0  0  0  0  0  0  0  0  0  0  0  0
    7.4790   -3.4847   -0.0000 C   0  0  0  0  0  0  0  0  0  0  0  0
    2.7663   -2.2511   -0.0000 C   0  0  0  0  0  0  0  0  0  0  0  0
    4.8282   -1.2382   -0.0000 C   0  0  0  0  0  0  0  0  0  0  0  0
    7.2920   -2.8035   -0.0000 C   0  0  0  0  0  0  0  0  0  0  0  0
    5.4926   -1.3256   -0.0000 C   0  0  0  0  0  0  0  0  0  0  0  0
    9.0776   -5.4787   -0.0000 C   0  0  0  0  0  0  0  0  0  0  0  0
    8.9680   -4.1490   -0.0000 C   0  0  0  0  0  0  0  0  0  0  0  0
    2.6089   -0.7531   -0.0000 C   0  0  0  0  0  0  0  0  0  0  0  0
    1.5477   -3.1364   -0.0000 C   0  0  0  0  0  0  0  0  0  0  0  0
    3.9849   -0.1405   -0.0000 N   0  0  0  0  0  0  0  0  0  0  0  0
    7.8441   -1.4424   -0.0000 C   0  0  0  0  0  0  0  0  0  0  0  0
    8.1831   -4.1326   -0.0000 C   0  0  0  0  0  0  0  0  0  0  0  0
    6.6736   -0.4944   -0.0000 N   0  0  0  0  0  0  0  0  0  0  0  0
    1.2329   -0.1405   -0.0000 C   0  0  0  0  0  0  0  0  0  0  0  0
    0.1717   -2.5238   -0.0000 C   0  0  0  0  0  0  0  0  0  0  0  0
    4.2980    1.3328   -0.0000 C   0  0  0  0  0  0  0  0  0  0  0  0
    9.3318   -1.2067   -0.0000 C   0  0  0  0  0  0  0  0  0  0  0  0
    9.7399   -3.7835   -0.0000 C   0  0  0  0  0  0  0  0  0  0  0  0
    6.7524    1.0097   -0.0000 C   0  0  0  0  0  0  0  0  0  0  0  0
    0.0143   -1.0258   -0.0000 C   0  0  0  0  0  0  0  0  0  0  0  0
    3.1787    2.3407   -0.0000 C   0  0  0  0  0  0  0  0  0  0  0  0
   10.2797   -2.3773   -0.0000 C   0  0  0  0  0  0  0  0  0  0  0  0
    8.0945    1.6935   -0.0000 C   0  0  0  0  0  0  0  0  0  0  0  0
    3.4919    3.8140   -0.0000 C   0  0  0  0  0  0  0  0  0  0  0  0
    1.7462    1.8753   -0.0000 C   0  0  0  0  0  0  0  0  0  0  0  0
    8.1733    3.1977   -0.0000 C   0  0  0  0  0  0  0  0  0  0  0  0
    9.3577    0.8732   -0.0000 C   0  0  0  0  0  0  0  0  0  0  0  0
    2.3725    4.8219   -0.0000 C   0  0  0  0  0  0  0  0  0  0  0  0
    0.6268    2.8831   -0.0000 C   0  0  0  0  0  0  0  0  0  0  0  0
    9.5154    3.8815   -0.0000 C   0  0  0  0  0  0  0  0  0  0  0  0
   10.6998    1.5570   -0.0000 C   0  0  0  0  0  0  0  0  0  0  0  0
    0.9400    4.3564   -0.0000 C   0  0  0  0  0  0  0  0  0  0  0  0
   10.7786    3.0612   -0.0000 C   0  0  0  0  0  0  0  0  0  0  0  0
  1  2  2  0  0  0  0
  2  3  1  0  0  0  0
  2  4  1  0  0  0  0
  3  5  1  0  0  0  0
  4  6  1  0  0  0  0
  4  7  1  0  0  0  0
  4  8  1  0  0  0  0
  5  9  1  0  0  0  0
  6 10  1  0  0  0  0
  7 11  1  0  0  0  0
  7 12  2  0  0  0  0
  8 13  1  0  0  0  0
  8 14  2  0  0  0  0
  9 15  2  0  0  0  0
 10 16  2  0  0  0  0
 11 17  2  0  0  0  0
 11 18  1  0  0  0  0
 12 19  1  0  0  0  0
 13 20  2  0  0  0  0
 13 21  1  0  0  0  0
 14 22  1  0  0  0  0
 17 23  1  0  0  0  0
 18 24  2  0  0  0  0
 19 25  1  0  0  0  0
 20 26  1  0  0  0  0
 21 27  2  0  0  0  0
 22 28  1  0  0  0  0
 23 29  2  0  0  0  0
 25 30  1  0  0  0  0
 26 31  2  0  0  0  0
 28 32  1  0  0  0  0
 30 33  2  0  0  0  0
 30 34  1  0  0  0  0
 32 35  2  0  0  0  0
 32 36  1  0  0  0  0
 33 37  1  0  0  0  0
 34 38  2  0  0  0  0
 35 39  1  0  0  0  0
 36 40  2  0  0  0  0
 37 41  2  0  0  0  0
 39 42  2  0  0  0  0
  5  6  2  0  0  0  0
 15 16  1  0  0  0  0
 17 19  1  0  0  0  0
 20 22  1  0  0  0  0
 24 29  1  0  0  0  0
 27 31  1  0  0  0  0
 38 41  1  0  0  0  0
 40 42  1  0  0  0  0
M  END
>  <S/N>
204

>  <Compound ID>
C_219

>  <PubChem CID>
126962135

>  <Isomeric SMILES>
C1=CC=C(C=C1)CN2C=C(C3=CC=CC=C32)C4(C5=CC=CC=C5NC4=O)C6=CN(C7=CC=CC=C76)CC8=CC=CC=C8

>  <IC50 (�M)>
5.9

>  <pIC50>
5.23

$$$$
C_220
Actelion Java MolfileCreator 1.0

 44 51  0  0  0  0  0  0  0  0999 V2000
   -0.0769    6.3040   -0.0000 F   0  0  0  0  0  0  0  0  0  0  0  0
    0.2367    4.8286   -0.0000 C   0  0  0  0  0  0  0  0  0  0  0  0
   -0.8842    3.8194   -0.0000 C   0  0  0  0  0  0  0  0  0  0  0  0
    1.6712    4.3625   -0.0000 C   0  0  0  0  0  0  0  0  0  0  0  0
   -0.5706    2.3440   -0.0000 C   0  0  0  0  0  0  0  0  0  0  0  0
    1.9848    2.8872   -0.0000 C   0  0  0  0  0  0  0  0  0  0  0  0
    0.8639    1.8779   -0.0000 C   0  0  0  0  0  0  0  0  0  0  0  0
   -1.6915    1.3347   -0.0000 C   0  0  0  0  0  0  0  0  0  0  0  0
   -1.3779   -0.1407   -0.0000 N   0  0  0  0  0  0  0  0  0  0  0  0
    0.0000   -0.7542   -0.0000 C   0  0  0  0  0  0  0  0  0  0  0  0
   -2.2224   -1.2399   -0.0000 C   0  0  0  0  0  0  0  0  0  0  0  0
   -0.1577   -2.2542   -0.0000 C   0  0  0  0  0  0  0  0  0  0  0  0
    1.3779   -0.1407   -0.0000 C   0  0  0  0  0  0  0  0  0  0  0  0
   -1.6330   -2.5678   -0.0000 C   0  0  0  0  0  0  0  0  0  0  0  0
    1.0626   -3.1408   -0.0000 C   0  0  0  0  0  0  0  0  0  0  0  0
    2.5982   -1.0273   -0.0000 C   0  0  0  0  0  0  0  0  0  0  0  0
   -2.2465   -3.9458   -0.0000 C   0  0  0  0  0  0  0  0  0  0  0  0
    2.4405   -2.5273   -0.0000 C   0  0  0  0  0  0  0  0  0  0  0  0
   -3.7219   -4.2594   -0.0000 C   0  0  0  0  0  0  0  0  0  0  0  0
   -1.4924   -5.2520   -0.0000 C   0  0  0  0  0  0  0  0  0  0  0  0
   -3.1958   -2.7736   -0.0000 C   0  0  0  0  0  0  0  0  0  0  0  0
   -4.8004   -3.4189   -0.0000 O   0  0  0  0  0  0  0  0  0  0  0  0
   -3.8796   -5.7595   -0.0000 N   0  0  0  0  0  0  0  0  0  0  0  0
   -2.5016   -6.3730   -0.0000 C   0  0  0  0  0  0  0  0  0  0  0  0
   -0.0170   -5.5657   -0.0000 C   0  0  0  0  0  0  0  0  0  0  0  0
   -4.6867   -2.7642   -0.0000 C   0  0  0  0  0  0  0  0  0  0  0  0
   -2.8878   -1.3275   -0.0000 C   0  0  0  0  0  0  0  0  0  0  0  0
   -2.0355   -7.8075   -0.0000 C   0  0  0  0  0  0  0  0  0  0  0  0
    0.4491   -7.0002   -0.0000 C   0  0  0  0  0  0  0  0  0  0  0  0
   -5.2426   -1.4444   -0.0000 C   0  0  0  0  0  0  0  0  0  0  0  0
   -5.6513   -4.0247   -0.0000 C   0  0  0  0  0  0  0  0  0  0  0  0
   -4.0704   -0.4951   -0.0000 N   0  0  0  0  0  0  0  0  0  0  0  0
   -0.5602   -8.1211   -0.0000 C   0  0  0  0  0  0  0  0  0  0  0  0
   -6.7324   -1.2084   -0.0000 C   0  0  0  0  0  0  0  0  0  0  0  0
   -7.1410   -3.7888   -0.0000 C   0  0  0  0  0  0  0  0  0  0  0  0
   -4.1493    1.0111   -0.0000 C   0  0  0  0  0  0  0  0  0  0  0  0
   -7.6816   -2.3806   -0.0000 C   0  0  0  0  0  0  0  0  0  0  0  0
   -5.4933    1.6959   -0.0000 C   0  0  0  0  0  0  0  0  0  0  0  0
   -5.5722    3.2022   -0.0000 C   0  0  0  0  0  0  0  0  0  0  0  0
   -6.7583    0.8744   -0.0000 C   0  0  0  0  0  0  0  0  0  0  0  0
   -6.9161    3.8870   -0.0000 C   0  0  0  0  0  0  0  0  0  0  0  0
   -8.1022    1.5592   -0.0000 C   0  0  0  0  0  0  0  0  0  0  0  0
   -6.9951    5.3932   -0.0000 F   0  0  0  0  0  0  0  0  0  0  0  0
   -8.1811    3.0655   -0.0000 C   0  0  0  0  0  0  0  0  0  0  0  0
  1  2  1  0  0  0  0
  2  3  2  0  0  0  0
  2  4  1  0  0  0  0
  3  5  1  0  0  0  0
  4  6  2  0  0  0  0
  5  7  2  0  0  0  0
  5  8  1  0  0  0  0
  8  9  1  0  0  0  0
  9 10  1  0  0  0  0
  9 11  1  0  0  0  0
 10 12  2  0  0  0  0
 10 13  1  0  0  0  0
 11 14  2  0  0  0  0
 12 15  1  0  0  0  0
 13 16  2  0  0  0  0
 14 17  1  0  0  0  0
 15 18  2  0  0  0  0
 17 19  1  0  0  0  0
 17 20  1  0  0  0  0
 17 21  1  0  0  0  0
 19 22  2  0  0  0  0
 19 23  1  0  0  0  0
 20 24  2  0  0  0  0
 20 25  1  0  0  0  0
 21 26  1  0  0  0  0
 21 27  2  0  0  0  0
 24 28  1  0  0  0  0
 25 29  2  0  0  0  0
 26 30  2  0  0  0  0
 26 31  1  0  0  0  0
 27 32  1  0  0  0  0
 28 33  2  0  0  0  0
 30 34  1  0  0  0  0
 31 35  2  0  0  0  0
 32 36  1  0  0  0  0
 34 37  2  0  0  0  0
 36 38  1  0  0  0  0
 38 39  2  0  0  0  0
 38 40  1  0  0  0  0
 39 41  1  0  0  0  0
 40 42  2  0  0  0  0
 41 43  1  0  0  0  0
 41 44  2  0  0  0  0
  6  7  1  0  0  0  0
 12 14  1  0  0  0  0
 16 18  1  0  0  0  0
 23 24  1  0  0  0  0
 29 33  1  0  0  0  0
 30 32  1  0  0  0  0
 35 37  1  0  0  0  0
 42 44  1  0  0  0  0
M  END
>  <S/N>
205

>  <Compound ID>
C_220

>  <PubChem CID>
126962136

>  <Isomeric SMILES>
C1=CC=C2C(=C1)C(=CN2CC3=CC(=CC=C3)F)C4(C5=CC=CC=C5NC4=O)C6=CN(C7=CC=CC=C76)CC8=CC(=CC=C8)F

>  <IC50 (�M)>
5.9

>  <pIC50>
5.23

$$$$
C_221
Actelion Java MolfileCreator 1.0

 44 51  0  0  0  0  0  0  0  0999 V2000
    2.7921    5.3718   -0.0000 Br  0  0  0  0  0  0  0  0  0  0  0  0
    1.6712    4.3625   -0.0000 C   0  0  0  0  0  0  0  0  0  0  0  0
    0.2367    4.8286   -0.0000 C   0  0  0  0  0  0  0  0  0  0  0  0
    1.9848    2.8872   -0.0000 C   0  0  0  0  0  0  0  0  0  0  0  0
   -0.8842    3.8194   -0.0000 C   0  0  0  0  0  0  0  0  0  0  0  0
    0.8639    1.8779   -0.0000 C   0  0  0  0  0  0  0  0  0  0  0  0
   -0.5706    2.3440   -0.0000 C   0  0  0  0  0  0  0  0  0  0  0  0
   -1.6915    1.3347   -0.0000 C   0  0  0  0  0  0  0  0  0  0  0  0
   -1.3779   -0.1407   -0.0000 N   0  0  0  0  0  0  0  0  0  0  0  0
    0.0000   -0.7542   -0.0000 C   0  0  0  0  0  0  0  0  0  0  0  0
   -2.2224   -1.2399   -0.0000 C   0  0  0  0  0  0  0  0  0  0  0  0
   -0.1577   -2.2542   -0.0000 C   0  0  0  0  0  0  0  0  0  0  0  0
    1.3779   -0.1407   -0.0000 C   0  0  0  0  0  0  0  0  0  0  0  0
   -1.6330   -2.5678   -0.0000 C   0  0  0  0  0  0  0  0  0  0  0  0
    1.0626   -3.1408   -0.0000 C   0  0  0  0  0  0  0  0  0  0  0  0
    2.5982   -1.0273   -0.0000 C   0  0  0  0  0  0  0  0  0  0  0  0
   -2.2465   -3.9458   -0.0000 C   0  0  0  0  0  0  0  0  0  0  0  0
    2.4405   -2.5273   -0.0000 C   0  0  0  0  0  0  0  0  0  0  0  0
   -3.7219   -4.2594   -0.0000 C   0  0  0  0  0  0  0  0  0  0  0  0
   -1.4924   -5.2520   -0.0000 C   0  0  0  0  0  0  0  0  0  0  0  0
   -3.1958   -2.7736   -0.0000 C   0  0  0  0  0  0  0  0  0  0  0  0
   -4.8004   -3.4189   -0.0000 O   0  0  0  0  0  0  0  0  0  0  0  0
   -3.8796   -5.7595   -0.0000 N   0  0  0  0  0  0  0  0  0  0  0  0
   -2.5016   -6.3730   -0.0000 C   0  0  0  0  0  0  0  0  0  0  0  0
   -0.0170   -5.5657   -0.0000 C   0  0  0  0  0  0  0  0  0  0  0  0
   -4.6867   -2.7642   -0.0000 C   0  0  0  0  0  0  0  0  0  0  0  0
   -2.8878   -1.3275   -0.0000 C   0  0  0  0  0  0  0  0  0  0  0  0
   -2.0355   -7.8075   -0.0000 C   0  0  0  0  0  0  0  0  0  0  0  0
    0.4491   -7.0002   -0.0000 C   0  0  0  0  0  0  0  0  0  0  0  0
   -5.2426   -1.4444   -0.0000 C   0  0  0  0  0  0  0  0  0  0  0  0
   -5.6513   -4.0247   -0.0000 C   0  0  0  0  0  0  0  0  0  0  0  0
   -4.0704   -0.4951   -0.0000 N   0  0  0  0  0  0  0  0  0  0  0  0
   -0.5602   -8.1211   -0.0000 C   0  0  0  0  0  0  0  0  0  0  0  0
   -6.7324   -1.2084   -0.0000 C   0  0  0  0  0  0  0  0  0  0  0  0
   -7.1410   -3.7888   -0.0000 C   0  0  0  0  0  0  0  0  0  0  0  0
   -4.1493    1.0111   -0.0000 C   0  0  0  0  0  0  0  0  0  0  0  0
   -7.6816   -2.3806   -0.0000 C   0  0  0  0  0  0  0  0  0  0  0  0
   -5.4933    1.6959   -0.0000 C   0  0  0  0  0  0  0  0  0  0  0  0
   -5.5722    3.2022   -0.0000 C   0  0  0  0  0  0  0  0  0  0  0  0
   -6.7583    0.8744   -0.0000 C   0  0  0  0  0  0  0  0  0  0  0  0
   -6.9161    3.8870   -0.0000 C   0  0  0  0  0  0  0  0  0  0  0  0
   -8.1022    1.5592   -0.0000 C   0  0  0  0  0  0  0  0  0  0  0  0
   -8.1811    3.0655   -0.0000 C   0  0  0  0  0  0  0  0  0  0  0  0
   -9.5251    3.7502   -0.0000 Br  0  0  0  0  0  0  0  0  0  0  0  0
  1  2  1  0  0  0  0
  2  3  2  0  0  0  0
  2  4  1  0  0  0  0
  3  5  1  0  0  0  0
  4  6  2  0  0  0  0
  5  7  2  0  0  0  0
  7  8  1  0  0  0  0
  8  9  1  0  0  0  0
  9 10  1  0  0  0  0
  9 11  1  0  0  0  0
 10 12  2  0  0  0  0
 10 13  1  0  0  0  0
 11 14  2  0  0  0  0
 12 15  1  0  0  0  0
 13 16  2  0  0  0  0
 14 17  1  0  0  0  0
 15 18  2  0  0  0  0
 17 19  1  0  0  0  0
 17 20  1  0  0  0  0
 17 21  1  0  0  0  0
 19 22  2  0  0  0  0
 19 23  1  0  0  0  0
 20 24  2  0  0  0  0
 20 25  1  0  0  0  0
 21 26  1  0  0  0  0
 21 27  2  0  0  0  0
 24 28  1  0  0  0  0
 25 29  2  0  0  0  0
 26 30  2  0  0  0  0
 26 31  1  0  0  0  0
 27 32  1  0  0  0  0
 28 33  2  0  0  0  0
 30 34  1  0  0  0  0
 31 35  2  0  0  0  0
 32 36  1  0  0  0  0
 34 37  2  0  0  0  0
 36 38  1  0  0  0  0
 38 39  2  0  0  0  0
 38 40  1  0  0  0  0
 39 41  1  0  0  0  0
 40 42  2  0  0  0  0
 41 43  2  0  0  0  0
 43 44  1  0  0  0  0
  6  7  1  0  0  0  0
 12 14  1  0  0  0  0
 16 18  1  0  0  0  0
 23 24  1  0  0  0  0
 29 33  1  0  0  0  0
 30 32  1  0  0  0  0
 35 37  1  0  0  0  0
 42 43  1  0  0  0  0
M  END
>  <S/N>
206

>  <Compound ID>
C_221

>  <PubChem CID>
126962137

>  <Isomeric SMILES>
C1=CC=C2C(=C1)C(=CN2CC3=CC=C(C=C3)Br)C4(C5=CC=CC=C5NC4=O)C6=CN(C7=CC=CC=C76)CC8=CC=C(C=C8)Br

>  <IC50 (�M)>
5.9

>  <pIC50>
5.23

$$$$
C_222
Actelion Java MolfileCreator 1.0

 22 21  0  0  1  0  0  0  0  0999 V2000
    7.2908   -0.5000   -0.0000 Cl  0  0  0  0  0  0  0  0  0  0  0  0
    5.1962   -0.5000   -0.0000 S   0  0  0  0  0  0  0  0  0  0  0  0
    4.2974   -0.9384   -0.0000 C   0  0  0  0  0  0  0  0  0  0  0  0
    5.8908   -1.2193   -0.0000 C   0  0  0  0  0  0  0  0  0  0  0  0
    5.3698    0.4848   -0.0000 C   0  0  0  0  0  0  0  0  0  0  0  0
    4.4365   -1.9286   -0.0000 C   0  0  0  0  0  0  0  0  0  0  0  0
    3.4144   -0.4689   -0.0000 C   0  0  0  0  0  0  0  0  0  0  0  0
    5.4213   -2.1023   -0.0000 C   0  0  0  0  0  0  0  0  0  0  0  0
    4.6038    1.1276   -0.0000 C   0  0  0  0  0  0  0  0  0  0  0  0
    3.7172   -2.6233   -0.0000 O   0  0  0  0  0  0  0  0  0  0  0  0
    2.5664   -0.9988   -0.0000 O   0  0  0  0  0  0  0  0  0  0  0  0
    5.8597   -3.0011   -0.0000 O   0  0  0  0  0  0  0  0  0  0  0  0
    3.6641    0.7856   -0.0000 O   0  0  0  0  0  0  0  0  0  0  0  0
    4.7774    2.1124   -0.0000 C   0  0  0  0  0  0  0  0  0  0  0  0
    4.0114    2.7552   -0.0000 O   0  0  0  0  0  0  0  0  0  0  0  0
    5.7171    2.4544   -0.0000 C   0  0  0  0  0  0  0  0  0  0  0  0
    4.1850    3.7400   -0.0000 C   0  0  0  0  0  0  0  0  0  0  0  0
    5.8907    3.4392   -0.0000 O   0  0  0  0  0  0  0  0  0  0  0  0
    3.4190    4.3828   -0.0000 C   0  0  0  0  0  0  0  0  0  0  0  0
    2.7762    3.6167   -0.0000 C   0  0  0  0  0  0  0  0  0  0  0  0
    2.6529    5.0256   -0.0000 C   0  0  0  0  0  0  0  0  0  0  0  0
    4.0618    5.1488   -0.0000 C   0  0  0  0  0  0  0  0  0  0  0  0
  2  3  1  0  0  0  0
  2  4  1  0  0  0  0
  2  5  1  0  0  0  0
  3  6  1  0  0  0  0
  3  7  1  1  0  0  0
  4  8  1  0  0  0  0
  5  9  1  0  0  0  0
  6 10  1  6  0  0  0
  7 11  1  0  0  0  0
  8 12  1  1  0  0  0
  9 13  1  1  0  0  0
  9 14  1  0  0  0  0
 14 15  1  1  0  0  0
 14 16  1  0  0  0  0
 15 17  1  0  0  0  0
 16 18  1  0  0  0  0
 17 19  1  0  0  0  0
 19 20  1  0  0  0  0
 19 21  1  0  0  0  0
 19 22  1  0  0  0  0
  6  8  1  0  0  0  0
M  CHG  2   1  -1   2   1
M  END
>  <S/N>
207

>  <Compound ID>
C_222

>  <PubChem CID>
127048314

>  <Isomeric SMILES>
CC(C)(C)CO[C@@H](CO)[C@@H](C[S+]1C[C@H]([C@@H]([C@H]1CO)O)O)O.[Cl-]

>  <IC50 (�M)>
0.47

>  <pIC50>
6.33

$$$$
C_223
Actelion Java MolfileCreator 1.0

 21 20  0  0  1  0  0  0  0  0999 V2000
    8.9943   -0.0000   -0.0000 Cl  0  0  0  0  0  0  0  0  0  0  0  0
    6.0622   -0.0000   -0.0000 S   0  0  0  0  0  0  0  0  0  0  0  0
    5.3675   -0.7193   -0.0000 C   0  0  0  0  0  0  0  0  0  0  0  0
    6.9610   -0.4384   -0.0000 C   0  0  0  0  0  0  0  0  0  0  0  0
    5.8885    0.9848   -0.0000 C   0  0  0  0  0  0  0  0  0  0  0  0
    5.8370   -1.6023   -0.0000 C   0  0  0  0  0  0  0  0  0  0  0  0
    4.3773   -0.5802   -0.0000 C   0  0  0  0  0  0  0  0  0  0  0  0
    6.8218   -1.4286   -0.0000 C   0  0  0  0  0  0  0  0  0  0  0  0
    6.6546    1.6276   -0.0000 C   0  0  0  0  0  0  0  0  0  0  0  0
    5.3986   -2.5011   -0.0000 O   0  0  0  0  0  0  0  0  0  0  0  0
    3.7616   -1.3682   -0.0000 O   0  0  0  0  0  0  0  0  0  0  0  0
    7.5411   -2.1233   -0.0000 O   0  0  0  0  0  0  0  0  0  0  0  0
    7.5943    1.2856   -0.0000 O   0  0  0  0  0  0  0  0  0  0  0  0
    6.4809    2.6124   -0.0000 C   0  0  0  0  0  0  0  0  0  0  0  0
    7.2470    3.2552   -0.0000 O   0  0  0  0  0  0  0  0  0  0  0  0
    5.5412    2.9544   -0.0000 C   0  0  0  0  0  0  0  0  0  0  0  0
    7.0733    4.2400   -0.0000 C   0  0  0  0  0  0  0  0  0  0  0  0
    4.7752    2.3116   -0.0000 O   0  0  0  0  0  0  0  0  0  0  0  0
    7.8394    4.8828   -0.0000 C   0  0  0  0  0  0  0  0  0  0  0  0
    8.7791    4.5408   -0.0000 C   0  0  0  0  0  0  0  0  0  0  0  0
    7.6657    5.8676   -0.0000 C   0  0  0  0  0  0  0  0  0  0  0  0
  2  3  1  0  0  0  0
  2  4  1  0  0  0  0
  2  5  1  0  0  0  0
  3  6  1  0  0  0  0
  3  7  1  1  0  0  0
  4  8  1  0  0  0  0
  5  9  1  0  0  0  0
  6 10  1  6  0  0  0
  7 11  1  0  0  0  0
  8 12  1  1  0  0  0
  9 13  1  6  0  0  0
  9 14  1  0  0  0  0
 14 15  1  6  0  0  0
 14 16  1  0  0  0  0
 15 17  1  0  0  0  0
 16 18  1  0  0  0  0
 17 19  1  0  0  0  0
 19 20  1  0  0  0  0
 19 21  1  0  0  0  0
  6  8  1  0  0  0  0
M  CHG  2   1  -1   2   1
M  END
>  <S/N>
208

>  <Compound ID>
C_223

>  <PubChem CID>
127051169

>  <Isomeric SMILES>
CC(C)CO[C@@H](CO)[C@@H](C[S+]1C[C@H]([C@@H]([C@H]1CO)O)O)O.[Cl-]

>  <IC50 (�M)>
0.69

>  <pIC50>
6.16

$$$$
C_224
Actelion Java MolfileCreator 1.0

 22 21  0  0  1  0  0  0  0  0999 V2000
   10.7263   -0.0000   -0.0000 Cl  0  0  0  0  0  0  0  0  0  0  0  0
    7.7942   -0.0000   -0.0000 S   0  0  0  0  0  0  0  0  0  0  0  0
    7.0996   -0.7193   -0.0000 C   0  0  0  0  0  0  0  0  0  0  0  0
    8.6930   -0.4384   -0.0000 C   0  0  0  0  0  0  0  0  0  0  0  0
    7.6206    0.9848   -0.0000 C   0  0  0  0  0  0  0  0  0  0  0  0
    7.5690   -1.6023   -0.0000 C   0  0  0  0  0  0  0  0  0  0  0  0
    6.1093   -0.5802   -0.0000 C   0  0  0  0  0  0  0  0  0  0  0  0
    8.5538   -1.4286   -0.0000 C   0  0  0  0  0  0  0  0  0  0  0  0
    8.3866    1.6276   -0.0000 C   0  0  0  0  0  0  0  0  0  0  0  0
    7.1307   -2.5011   -0.0000 O   0  0  0  0  0  0  0  0  0  0  0  0
    5.4936   -1.3682   -0.0000 O   0  0  0  0  0  0  0  0  0  0  0  0
    9.2732   -2.1233   -0.0000 O   0  0  0  0  0  0  0  0  0  0  0  0
    9.3263    1.2856   -0.0000 O   0  0  0  0  0  0  0  0  0  0  0  0
    8.2130    2.6124   -0.0000 C   0  0  0  0  0  0  0  0  0  0  0  0
    8.9790    3.2552   -0.0000 O   0  0  0  0  0  0  0  0  0  0  0  0
    7.2733    2.9544   -0.0000 C   0  0  0  0  0  0  0  0  0  0  0  0
    8.8054    4.2400   -0.0000 C   0  0  0  0  0  0  0  0  0  0  0  0
    6.5072    2.3116   -0.0000 O   0  0  0  0  0  0  0  0  0  0  0  0
    9.5714    4.8828   -0.0000 C   0  0  0  0  0  0  0  0  0  0  0  0
    9.3978    5.8676   -0.0000 C   0  0  0  0  0  0  0  0  0  0  0  0
   10.1638    6.5104   -0.0000 C   0  0  0  0  0  0  0  0  0  0  0  0
    9.9902    7.4952   -0.0000 C   0  0  0  0  0  0  0  0  0  0  0  0
  2  3  1  0  0  0  0
  2  4  1  0  0  0  0
  2  5  1  0  0  0  0
  3  6  1  0  0  0  0
  3  7  1  1  0  0  0
  4  8  1  0  0  0  0
  5  9  1  0  0  0  0
  6 10  1  6  0  0  0
  7 11  1  0  0  0  0
  8 12  1  1  0  0  0
  9 13  1  6  0  0  0
  9 14  1  0  0  0  0
 14 15  1  6  0  0  0
 14 16  1  0  0  0  0
 15 17  1  0  0  0  0
 16 18  1  0  0  0  0
 17 19  1  0  0  0  0
 19 20  1  0  0  0  0
 20 21  1  0  0  0  0
 21 22  1  0  0  0  0
  6  8  1  0  0  0  0
M  CHG  2   1  -1   2   1
M  END
>  <S/N>
209

>  <Compound ID>
C_224

>  <PubChem CID>
127052422

>  <Isomeric SMILES>
CCCCCO[C@@H](CO)[C@@H](C[S+]1C[C@H]([C@@H]([C@H]1CO)O)O)O.[Cl-]

>  <IC50 (�M)>
1.5

>  <pIC50>
5.82

$$$$
C_225
Actelion Java MolfileCreator 1.0

 24 23  0  0  1  0  0  0  0  0999 V2000
   18.6876   -0.0000   -0.0000 Cl  0  0  0  0  0  0  0  0  0  0  0  0
   14.2894   -0.0000   -0.0000 S   0  0  0  0  0  0  0  0  0  0  0  0
   13.2474   -1.0790   -0.0000 C   0  0  0  0  0  0  0  0  0  0  0  0
   15.6376   -0.6576   -0.0000 C   0  0  0  0  0  0  0  0  0  0  0  0
   14.0289    1.4772   -0.0000 C   0  0  0  0  0  0  0  0  0  0  0  0
   13.9516   -2.4034   -0.0000 C   0  0  0  0  0  0  0  0  0  0  0  0
   11.7620   -0.8703   -0.0000 C   0  0  0  0  0  0  0  0  0  0  0  0
   15.4289   -2.1430   -0.0000 C   0  0  0  0  0  0  0  0  0  0  0  0
   15.1780    2.4414   -0.0000 C   0  0  0  0  0  0  0  0  0  0  0  0
   13.2941   -3.7516   -0.0000 O   0  0  0  0  0  0  0  0  0  0  0  0
   10.8385   -2.0523   -0.0000 O   0  0  0  0  0  0  0  0  0  0  0  0
   16.5079   -3.1849   -0.0000 O   0  0  0  0  0  0  0  0  0  0  0  0
   16.5876    1.9284   -0.0000 O   0  0  0  0  0  0  0  0  0  0  0  0
   14.9175    3.9186   -0.0000 C   0  0  0  0  0  0  0  0  0  0  0  0
   16.0666    4.8828   -0.0000 O   0  0  0  0  0  0  0  0  0  0  0  0
   13.5080    4.4316   -0.0000 C   0  0  0  0  0  0  0  0  0  0  0  0
   15.8061    6.3600   -0.0000 C   0  0  0  0  0  0  0  0  0  0  0  0
   12.3589    3.4675   -0.0000 O   0  0  0  0  0  0  0  0  0  0  0  0
   16.9552    7.3242   -0.0000 C   0  0  0  0  0  0  0  0  0  0  0  0
   16.6947    8.8014   -0.0000 C   0  0  0  0  0  0  0  0  0  0  0  0
   17.8438    9.7656   -0.0000 C   0  0  0  0  0  0  0  0  0  0  0  0
   17.5833   11.2428   -0.0000 C   0  0  0  0  0  0  0  0  0  0  0  0
   18.7324   12.2070   -0.0000 C   0  0  0  0  0  0  0  0  0  0  0  0
   18.4719   13.6842   -0.0000 C   0  0  0  0  0  0  0  0  0  0  0  0
  2  3  1  0  0  0  0
  2  4  1  0  0  0  0
  2  5  1  0  0  0  0
  3  6  1  0  0  0  0
  3  7  1  1  0  0  0
  4  8  1  0  0  0  0
  5  9  1  0  0  0  0
  6 10  1  6  0  0  0
  7 11  1  0  0  0  0
  8 12  1  1  0  0  0
  9 13  1  6  0  0  0
  9 14  1  0  0  0  0
 14 15  1  6  0  0  0
 14 16  1  0  0  0  0
 15 17  1  0  0  0  0
 16 18  1  0  0  0  0
 17 19  1  0  0  0  0
 19 20  1  0  0  0  0
 20 21  1  0  0  0  0
 21 22  1  0  0  0  0
 22 23  1  0  0  0  0
 23 24  1  0  0  0  0
  6  8  1  0  0  0  0
M  CHG  2   1  -1   2   1
M  END
>  <S/N>
210

>  <Compound ID>
C_225

>  <PubChem CID>
127052423

>  <Isomeric SMILES>
CCCCCCCO[C@@H](CO)[C@@H](C[S+]1C[C@H]([C@@H]([C@H]1CO)O)O)O.[Cl-]

>  <IC50 (�M)>
0.64

>  <pIC50>
6.19

$$$$
C_226
Actelion Java MolfileCreator 1.0

 44 51  0  0  0  0  0  0  0  0999 V2000
   -2.3187    4.2855   -0.0000 Cl  0  0  0  0  0  0  0  0  0  0  0  0
   -0.8842    3.8194   -0.0000 C   0  0  0  0  0  0  0  0  0  0  0  0
   -0.5706    2.3440   -0.0000 C   0  0  0  0  0  0  0  0  0  0  0  0
    0.2367    4.8286   -0.0000 C   0  0  0  0  0  0  0  0  0  0  0  0
    0.8639    1.8779   -0.0000 C   0  0  0  0  0  0  0  0  0  0  0  0
   -1.6915    1.3347   -0.0000 C   0  0  0  0  0  0  0  0  0  0  0  0
    1.6712    4.3625   -0.0000 C   0  0  0  0  0  0  0  0  0  0  0  0
    1.9848    2.8872   -0.0000 C   0  0  0  0  0  0  0  0  0  0  0  0
   -1.3779   -0.1407   -0.0000 N   0  0  0  0  0  0  0  0  0  0  0  0
    0.0000   -0.7542   -0.0000 C   0  0  0  0  0  0  0  0  0  0  0  0
   -2.2224   -1.2399   -0.0000 C   0  0  0  0  0  0  0  0  0  0  0  0
   -0.1577   -2.2542   -0.0000 C   0  0  0  0  0  0  0  0  0  0  0  0
    1.3779   -0.1407   -0.0000 C   0  0  0  0  0  0  0  0  0  0  0  0
   -1.6330   -2.5678   -0.0000 C   0  0  0  0  0  0  0  0  0  0  0  0
    1.0626   -3.1408   -0.0000 C   0  0  0  0  0  0  0  0  0  0  0  0
    2.5982   -1.0273   -0.0000 C   0  0  0  0  0  0  0  0  0  0  0  0
   -2.2465   -3.9458   -0.0000 C   0  0  0  0  0  0  0  0  0  0  0  0
    2.4405   -2.5273   -0.0000 C   0  0  0  0  0  0  0  0  0  0  0  0
   -3.7219   -4.2594   -0.0000 C   0  0  0  0  0  0  0  0  0  0  0  0
   -1.4924   -5.2520   -0.0000 C   0  0  0  0  0  0  0  0  0  0  0  0
   -3.1958   -2.7736   -0.0000 C   0  0  0  0  0  0  0  0  0  0  0  0
   -4.8004   -3.4189   -0.0000 O   0  0  0  0  0  0  0  0  0  0  0  0
   -3.8796   -5.7595   -0.0000 N   0  0  0  0  0  0  0  0  0  0  0  0
   -2.5016   -6.3730   -0.0000 C   0  0  0  0  0  0  0  0  0  0  0  0
   -0.0170   -5.5657   -0.0000 C   0  0  0  0  0  0  0  0  0  0  0  0
   -4.6867   -2.7642   -0.0000 C   0  0  0  0  0  0  0  0  0  0  0  0
   -2.8878   -1.3275   -0.0000 C   0  0  0  0  0  0  0  0  0  0  0  0
   -2.0355   -7.8075   -0.0000 C   0  0  0  0  0  0  0  0  0  0  0  0
    0.4491   -7.0002   -0.0000 C   0  0  0  0  0  0  0  0  0  0  0  0
   -5.2426   -1.4444   -0.0000 C   0  0  0  0  0  0  0  0  0  0  0  0
   -5.6513   -4.0247   -0.0000 C   0  0  0  0  0  0  0  0  0  0  0  0
   -4.0704   -0.4951   -0.0000 N   0  0  0  0  0  0  0  0  0  0  0  0
   -0.5602   -8.1211   -0.0000 C   0  0  0  0  0  0  0  0  0  0  0  0
   -6.7324   -1.2084   -0.0000 C   0  0  0  0  0  0  0  0  0  0  0  0
   -7.1410   -3.7888   -0.0000 C   0  0  0  0  0  0  0  0  0  0  0  0
   -4.1493    1.0111   -0.0000 C   0  0  0  0  0  0  0  0  0  0  0  0
   -7.6816   -2.3806   -0.0000 C   0  0  0  0  0  0  0  0  0  0  0  0
   -5.4933    1.6959   -0.0000 C   0  0  0  0  0  0  0  0  0  0  0  0
   -5.5722    3.2022   -0.0000 C   0  0  0  0  0  0  0  0  0  0  0  0
   -6.7583    0.8744   -0.0000 C   0  0  0  0  0  0  0  0  0  0  0  0
   -4.3072    4.0237   -0.0000 Cl  0  0  0  0  0  0  0  0  0  0  0  0
   -6.9161    3.8870   -0.0000 C   0  0  0  0  0  0  0  0  0  0  0  0
   -8.1022    1.5592   -0.0000 C   0  0  0  0  0  0  0  0  0  0  0  0
   -8.1811    3.0655   -0.0000 C   0  0  0  0  0  0  0  0  0  0  0  0
  1  2  1  0  0  0  0
  2  3  2  0  0  0  0
  2  4  1  0  0  0  0
  3  5  1  0  0  0  0
  3  6  1  0  0  0  0
  4  7  2  0  0  0  0
  5  8  2  0  0  0  0
  6  9  1  0  0  0  0
  9 10  1  0  0  0  0
  9 11  1  0  0  0  0
 10 12  2  0  0  0  0
 10 13  1  0  0  0  0
 11 14  2  0  0  0  0
 12 15  1  0  0  0  0
 13 16  2  0  0  0  0
 14 17  1  0  0  0  0
 15 18  2  0  0  0  0
 17 19  1  0  0  0  0
 17 20  1  0  0  0  0
 17 21  1  0  0  0  0
 19 22  2  0  0  0  0
 19 23  1  0  0  0  0
 20 24  2  0  0  0  0
 20 25  1  0  0  0  0
 21 26  1  0  0  0  0
 21 27  2  0  0  0  0
 24 28  1  0  0  0  0
 25 29  2  0  0  0  0
 26 30  2  0  0  0  0
 26 31  1  0  0  0  0
 27 32  1  0  0  0  0
 28 33  2  0  0  0  0
 30 34  1  0  0  0  0
 31 35  2  0  0  0  0
 32 36  1  0  0  0  0
 34 37  2  0  0  0  0
 36 38  1  0  0  0  0
 38 39  2  0  0  0  0
 38 40  1  0  0  0  0
 39 41  1  0  0  0  0
 39 42  1  0  0  0  0
 40 43  2  0  0  0  0
 42 44  2  0  0  0  0
  7  8  1  0  0  0  0
 12 14  1  0  0  0  0
 16 18  1  0  0  0  0
 23 24  1  0  0  0  0
 29 33  1  0  0  0  0
 30 32  1  0  0  0  0
 35 37  1  0  0  0  0
 43 44  1  0  0  0  0
M  END
>  <S/N>
211

>  <Compound ID>
C_226

>  <PubChem CID>
127053745

>  <Isomeric SMILES>
C1=CC=C(C(=C1)CN2C=C(C3=CC=CC=C32)C4(C5=CC=CC=C5NC4=O)C6=CN(C7=CC=CC=C76)CC8=CC=CC=C8Cl)Cl

>  <IC50 (�M)>
5.9

>  <pIC50>
5.23

$$$$
C_227
Actelion Java MolfileCreator 1.0

 44 51  0  0  0  0  0  0  0  0999 V2000
   -2.3187    4.2855   -0.0000 F   0  0  0  0  0  0  0  0  0  0  0  0
   -0.8842    3.8194   -0.0000 C   0  0  0  0  0  0  0  0  0  0  0  0
   -0.5706    2.3440   -0.0000 C   0  0  0  0  0  0  0  0  0  0  0  0
    0.2367    4.8286   -0.0000 C   0  0  0  0  0  0  0  0  0  0  0  0
    0.8639    1.8779   -0.0000 C   0  0  0  0  0  0  0  0  0  0  0  0
   -1.6915    1.3347   -0.0000 C   0  0  0  0  0  0  0  0  0  0  0  0
    1.6712    4.3625   -0.0000 C   0  0  0  0  0  0  0  0  0  0  0  0
    1.9848    2.8872   -0.0000 C   0  0  0  0  0  0  0  0  0  0  0  0
   -1.3779   -0.1407   -0.0000 N   0  0  0  0  0  0  0  0  0  0  0  0
    0.0000   -0.7542   -0.0000 C   0  0  0  0  0  0  0  0  0  0  0  0
   -2.2224   -1.2399   -0.0000 C   0  0  0  0  0  0  0  0  0  0  0  0
   -0.1577   -2.2542   -0.0000 C   0  0  0  0  0  0  0  0  0  0  0  0
    1.3779   -0.1407   -0.0000 C   0  0  0  0  0  0  0  0  0  0  0  0
   -1.6330   -2.5678   -0.0000 C   0  0  0  0  0  0  0  0  0  0  0  0
    1.0626   -3.1408   -0.0000 C   0  0  0  0  0  0  0  0  0  0  0  0
    2.5982   -1.0273   -0.0000 C   0  0  0  0  0  0  0  0  0  0  0  0
   -2.2465   -3.9458   -0.0000 C   0  0  0  0  0  0  0  0  0  0  0  0
    2.4405   -2.5273   -0.0000 C   0  0  0  0  0  0  0  0  0  0  0  0
   -3.7219   -4.2594   -0.0000 C   0  0  0  0  0  0  0  0  0  0  0  0
   -1.4924   -5.2520   -0.0000 C   0  0  0  0  0  0  0  0  0  0  0  0
   -3.1958   -2.7736   -0.0000 C   0  0  0  0  0  0  0  0  0  0  0  0
   -4.8004   -3.4189   -0.0000 O   0  0  0  0  0  0  0  0  0  0  0  0
   -3.8796   -5.7595   -0.0000 N   0  0  0  0  0  0  0  0  0  0  0  0
   -2.5016   -6.3730   -0.0000 C   0  0  0  0  0  0  0  0  0  0  0  0
   -0.0170   -5.5657   -0.0000 C   0  0  0  0  0  0  0  0  0  0  0  0
   -4.6867   -2.7642   -0.0000 C   0  0  0  0  0  0  0  0  0  0  0  0
   -2.8878   -1.3275   -0.0000 C   0  0  0  0  0  0  0  0  0  0  0  0
   -2.0355   -7.8075   -0.0000 C   0  0  0  0  0  0  0  0  0  0  0  0
    0.4491   -7.0002   -0.0000 C   0  0  0  0  0  0  0  0  0  0  0  0
   -5.2426   -1.4444   -0.0000 C   0  0  0  0  0  0  0  0  0  0  0  0
   -5.6513   -4.0247   -0.0000 C   0  0  0  0  0  0  0  0  0  0  0  0
   -4.0704   -0.4951   -0.0000 N   0  0  0  0  0  0  0  0  0  0  0  0
   -0.5602   -8.1211   -0.0000 C   0  0  0  0  0  0  0  0  0  0  0  0
   -6.7324   -1.2084   -0.0000 C   0  0  0  0  0  0  0  0  0  0  0  0
   -7.1410   -3.7888   -0.0000 C   0  0  0  0  0  0  0  0  0  0  0  0
   -4.1493    1.0111   -0.0000 C   0  0  0  0  0  0  0  0  0  0  0  0
   -7.6816   -2.3806   -0.0000 C   0  0  0  0  0  0  0  0  0  0  0  0
   -5.4933    1.6959   -0.0000 C   0  0  0  0  0  0  0  0  0  0  0  0
   -5.5722    3.2022   -0.0000 C   0  0  0  0  0  0  0  0  0  0  0  0
   -6.7583    0.8744   -0.0000 C   0  0  0  0  0  0  0  0  0  0  0  0
   -4.3072    4.0237   -0.0000 F   0  0  0  0  0  0  0  0  0  0  0  0
   -6.9161    3.8870   -0.0000 C   0  0  0  0  0  0  0  0  0  0  0  0
   -8.1022    1.5592   -0.0000 C   0  0  0  0  0  0  0  0  0  0  0  0
   -8.1811    3.0655   -0.0000 C   0  0  0  0  0  0  0  0  0  0  0  0
  1  2  1  0  0  0  0
  2  3  2  0  0  0  0
  2  4  1  0  0  0  0
  3  5  1  0  0  0  0
  3  6  1  0  0  0  0
  4  7  2  0  0  0  0
  5  8  2  0  0  0  0
  6  9  1  0  0  0  0
  9 10  1  0  0  0  0
  9 11  1  0  0  0  0
 10 12  2  0  0  0  0
 10 13  1  0  0  0  0
 11 14  2  0  0  0  0
 12 15  1  0  0  0  0
 13 16  2  0  0  0  0
 14 17  1  0  0  0  0
 15 18  2  0  0  0  0
 17 19  1  0  0  0  0
 17 20  1  0  0  0  0
 17 21  1  0  0  0  0
 19 22  2  0  0  0  0
 19 23  1  0  0  0  0
 20 24  2  0  0  0  0
 20 25  1  0  0  0  0
 21 26  1  0  0  0  0
 21 27  2  0  0  0  0
 24 28  1  0  0  0  0
 25 29  2  0  0  0  0
 26 30  2  0  0  0  0
 26 31  1  0  0  0  0
 27 32  1  0  0  0  0
 28 33  2  0  0  0  0
 30 34  1  0  0  0  0
 31 35  2  0  0  0  0
 32 36  1  0  0  0  0
 34 37  2  0  0  0  0
 36 38  1  0  0  0  0
 38 39  2  0  0  0  0
 38 40  1  0  0  0  0
 39 41  1  0  0  0  0
 39 42  1  0  0  0  0
 40 43  2  0  0  0  0
 42 44  2  0  0  0  0
  7  8  1  0  0  0  0
 12 14  1  0  0  0  0
 16 18  1  0  0  0  0
 23 24  1  0  0  0  0
 29 33  1  0  0  0  0
 30 32  1  0  0  0  0
 35 37  1  0  0  0  0
 43 44  1  0  0  0  0
M  END
>  <S/N>
212

>  <Compound ID>
C_227

>  <PubChem CID>
127053746

>  <Isomeric SMILES>
C1=CC=C(C(=C1)CN2C=C(C3=CC=CC=C32)C4(C5=CC=CC=C5NC4=O)C6=CN(C7=CC=CC=C76)CC8=CC=CC=C8F)F

>  <IC50 (�M)>
5.9

>  <pIC50>
5.23

$$$$
C_228
Actelion Java MolfileCreator 1.0

 34 39  0  0  0  0  0  0  0  0999 V2000
    7.9441   -2.3337   -0.0000 O   0  0  0  0  0  0  0  0  0  0  0  0
    8.5574   -0.9562   -0.0000 C   0  0  0  0  0  0  0  0  0  0  0  0
   10.0323   -0.6427   -0.0000 N   0  0  0  0  0  0  0  0  0  0  0  0
    7.8035    0.3496   -0.0000 C   0  0  0  0  0  0  0  0  0  0  0  0
   10.1899    0.8569   -0.0000 C   0  0  0  0  0  0  0  0  0  0  0  0
    8.8124    1.4702   -0.0000 C   0  0  0  0  0  0  0  0  0  0  0  0
    6.3039    0.5072   -0.0000 C   0  0  0  0  0  0  0  0  0  0  0  0
    7.2631    1.7573   -0.0000 C   0  0  0  0  0  0  0  0  0  0  0  0
   11.4098    1.7432   -0.0000 C   0  0  0  0  0  0  0  0  0  0  0  0
    8.7233    2.8549   -0.0000 C   0  0  0  0  0  0  0  0  0  0  0  0
    5.2950   -0.6133   -0.0000 C   0  0  0  0  0  0  0  0  0  0  0  0
    5.4488    1.6813   -0.0000 C   0  0  0  0  0  0  0  0  0  0  0  0
    8.0391    3.0337   -0.0000 C   0  0  0  0  0  0  0  0  0  0  0  0
    5.8572    2.2135   -0.0000 C   0  0  0  0  0  0  0  0  0  0  0  0
   11.2522    3.2428   -0.0000 C   0  0  0  0  0  0  0  0  0  0  0  0
   10.0445    3.8133   -0.0000 C   0  0  0  0  0  0  0  0  0  0  0  0
    3.9175   -0.0000   -0.0000 C   0  0  0  0  0  0  0  0  0  0  0  0
    5.4526   -2.1129   -0.0000 C   0  0  0  0  0  0  0  0  0  0  0  0
    4.0751    1.4996   -0.0000 N   0  0  0  0  0  0  0  0  0  0  0  0
    7.1354    4.1937   -0.0000 C   0  0  0  0  0  0  0  0  0  0  0  0
    9.6374    3.1410   -0.0000 C   0  0  0  0  0  0  0  0  0  0  0  0
    5.7277    3.6534   -0.0000 N   0  0  0  0  0  0  0  0  0  0  0  0
    2.6976   -0.8863   -0.0000 C   0  0  0  0  0  0  0  0  0  0  0  0
    4.2327   -2.9992   -0.0000 C   0  0  0  0  0  0  0  0  0  0  0  0
    2.9546    2.5085   -0.0000 C   0  0  0  0  0  0  0  0  0  0  0  0
    7.6758    5.6014   -0.0000 C   0  0  0  0  0  0  0  0  0  0  0  0
   10.1140    4.6655   -0.0000 C   0  0  0  0  0  0  0  0  0  0  0  0
    4.4632    4.4746   -0.0000 C   0  0  0  0  0  0  0  0  0  0  0  0
    2.8552   -2.3859   -0.0000 C   0  0  0  0  0  0  0  0  0  0  0  0
    1.5205    2.0426   -0.0000 C   0  0  0  0  0  0  0  0  0  0  0  0
    9.1651    5.8373   -0.0000 C   0  0  0  0  0  0  0  0  0  0  0  0
    4.5421    5.9804   -0.0000 C   0  0  0  0  0  0  0  0  0  0  0  0
    0.4000    3.0515   -0.0000 C   0  0  0  0  0  0  0  0  0  0  0  0
    3.2775    6.8016   -0.0000 C   0  0  0  0  0  0  0  0  0  0  0  0
  1  2  2  0  0  0  0
  2  3  1  0  0  0  0
  2  4  1  0  0  0  0
  3  5  1  0  0  0  0
  4  6  1  0  0  0  0
  4  7  1  0  0  0  0
  4  8  1  0  0  0  0
  5  9  1  0  0  0  0
  6 10  1  0  0  0  0
  7 11  1  0  0  0  0
  7 12  2  0  0  0  0
  8 13  1  0  0  0  0
  8 14  2  0  0  0  0
  9 15  2  0  0  0  0
 10 16  2  0  0  0  0
 11 17  2  0  0  0  0
 11 18  1  0  0  0  0
 12 19  1  0  0  0  0
 13 20  2  0  0  0  0
 13 21  1  0  0  0  0
 14 22  1  0  0  0  0
 17 23  1  0  0  0  0
 18 24  2  0  0  0  0
 19 25  1  0  0  0  0
 20 26  1  0  0  0  0
 21 27  2  0  0  0  0
 22 28  1  0  0  0  0
 23 29  2  0  0  0  0
 25 30  1  0  0  0  0
 26 31  2  0  0  0  0
 28 32  1  0  0  0  0
 30 33  1  0  0  0  0
 32 34  1  0  0  0  0
  5  6  2  0  0  0  0
 15 16  1  0  0  0  0
 17 19  1  0  0  0  0
 20 22  1  0  0  0  0
 24 29  1  0  0  0  0
 27 31  1  0  0  0  0
M  END
>  <S/N>
213

>  <Compound ID>
C_228

>  <PubChem CID>
127053747

>  <Isomeric SMILES>
CCCN1C=C(C2=CC=CC=C21)C3(C4=CC=CC=C4NC3=O)C5=CN(C6=CC=CC=C65)CCC

>  <IC50 (�M)>
5.9

>  <pIC50>
5.23

$$$$
C_229
Actelion Java MolfileCreator 1.0

 34 39  0  0  0  0  0  0  0  0999 V2000
    2.6049   -5.4098   -0.0000 O   0  0  0  0  0  0  0  0  0  0  0  0
    4.1050   -5.2522   -0.0000 C   0  0  0  0  0  0  0  0  0  0  0  0
    5.1143   -6.3731   -0.0000 N   0  0  0  0  0  0  0  0  0  0  0  0
    4.8592   -3.9459   -0.0000 C   0  0  0  0  0  0  0  0  0  0  0  0
    6.4923   -5.7596   -0.0000 C   0  0  0  0  0  0  0  0  0  0  0  0
    6.3346   -4.2595   -0.0000 C   0  0  0  0  0  0  0  0  0  0  0  0
    4.2457   -2.5679   -0.0000 C   0  0  0  0  0  0  0  0  0  0  0  0
    5.8084   -2.7737   -0.0000 C   0  0  0  0  0  0  0  0  0  0  0  0
    7.8702   -6.3731   -0.0000 C   0  0  0  0  0  0  0  0  0  0  0  0
    7.4896   -3.4897   -0.0000 C   0  0  0  0  0  0  0  0  0  0  0  0
    2.7703   -2.2543   -0.0000 C   0  0  0  0  0  0  0  0  0  0  0  0
    4.8351   -1.2399   -0.0000 C   0  0  0  0  0  0  0  0  0  0  0  0
    7.3024   -2.8075   -0.0000 C   0  0  0  0  0  0  0  0  0  0  0  0
    5.5004   -1.3275   -0.0000 C   0  0  0  0  0  0  0  0  0  0  0  0
    9.0905   -5.4865   -0.0000 C   0  0  0  0  0  0  0  0  0  0  0  0
    8.9808   -4.1550   -0.0000 C   0  0  0  0  0  0  0  0  0  0  0  0
    2.6126   -0.7542   -0.0000 C   0  0  0  0  0  0  0  0  0  0  0  0
    1.5500   -3.1409   -0.0000 C   0  0  0  0  0  0  0  0  0  0  0  0
    3.9906   -0.1407   -0.0000 N   0  0  0  0  0  0  0  0  0  0  0  0
    7.8553   -1.4444   -0.0000 C   0  0  0  0  0  0  0  0  0  0  0  0
    8.1947   -4.1384   -0.0000 C   0  0  0  0  0  0  0  0  0  0  0  0
    6.6831   -0.4952   -0.0000 N   0  0  0  0  0  0  0  0  0  0  0  0
    1.2346   -0.1407   -0.0000 C   0  0  0  0  0  0  0  0  0  0  0  0
    0.1720   -2.5274   -0.0000 C   0  0  0  0  0  0  0  0  0  0  0  0
    4.3042    1.3347   -0.0000 C   0  0  0  0  0  0  0  0  0  0  0  0
    9.3451   -1.2084   -0.0000 C   0  0  0  0  0  0  0  0  0  0  0  0
    9.7538   -3.7889   -0.0000 C   0  0  0  0  0  0  0  0  0  0  0  0
    6.7620    1.0112   -0.0000 C   0  0  0  0  0  0  0  0  0  0  0  0
    0.0143   -1.0273   -0.0000 C   0  0  0  0  0  0  0  0  0  0  0  0
    3.1832    2.3440   -0.0000 C   0  0  0  0  0  0  0  0  0  0  0  0
    5.9155    2.0731   -0.0000 C   0  0  0  0  0  0  0  0  0  0  0  0
   10.2944   -2.3807   -0.0000 C   0  0  0  0  0  0  0  0  0  0  0  0
    8.1060    1.6959   -0.0000 C   0  0  0  0  0  0  0  0  0  0  0  0
    5.6449    1.5100   -0.0000 C   0  0  0  0  0  0  0  0  0  0  0  0
  1  2  2  0  0  0  0
  2  3  1  0  0  0  0
  2  4  1  0  0  0  0
  3  5  1  0  0  0  0
  4  6  1  0  0  0  0
  4  7  1  0  0  0  0
  4  8  1  0  0  0  0
  5  9  1  0  0  0  0
  6 10  1  0  0  0  0
  7 11  1  0  0  0  0
  7 12  2  0  0  0  0
  8 13  1  0  0  0  0
  8 14  2  0  0  0  0
  9 15  2  0  0  0  0
 10 16  2  0  0  0  0
 11 17  2  0  0  0  0
 11 18  1  0  0  0  0
 12 19  1  0  0  0  0
 13 20  2  0  0  0  0
 13 21  1  0  0  0  0
 14 22  1  0  0  0  0
 17 23  1  0  0  0  0
 18 24  2  0  0  0  0
 19 25  1  0  0  0  0
 20 26  1  0  0  0  0
 21 27  2  0  0  0  0
 22 28  1  0  0  0  0
 23 29  2  0  0  0  0
 25 30  1  0  0  0  0
 25 31  1  0  0  0  0
 26 32  2  0  0  0  0
 28 33  1  0  0  0  0
 28 34  1  0  0  0  0
  5  6  2  0  0  0  0
 15 16  1  0  0  0  0
 17 19  1  0  0  0  0
 20 22  1  0  0  0  0
 24 29  1  0  0  0  0
 27 32  1  0  0  0  0
M  END
>  <S/N>
214

>  <Compound ID>
C_229

>  <PubChem CID>
127053748

>  <Isomeric SMILES>
CC(C)N1C=C(C2=CC=CC=C21)C3(C4=CC=CC=C4NC3=O)C5=CN(C6=CC=CC=C65)C(C)C

>  <IC50 (�M)>
5.9

>  <pIC50>
5.23

$$$$
C_230
Actelion Java MolfileCreator 1.0

 36 41  0  0  0  0  0  0  0  0999 V2000
    5.2143   -5.4065   -0.0000 O   0  0  0  0  0  0  0  0  0  0  0  0
    6.7135   -5.2490   -0.0000 C   0  0  0  0  0  0  0  0  0  0  0  0
    7.7222   -6.3692   -0.0000 N   0  0  0  0  0  0  0  0  0  0  0  0
    7.4672   -3.9435   -0.0000 C   0  0  0  0  0  0  0  0  0  0  0  0
    9.0993   -5.7561   -0.0000 C   0  0  0  0  0  0  0  0  0  0  0  0
    8.9417   -4.2569   -0.0000 C   0  0  0  0  0  0  0  0  0  0  0  0
    6.8541   -2.5663   -0.0000 C   0  0  0  0  0  0  0  0  0  0  0  0
    8.4159   -2.7720   -0.0000 C   0  0  0  0  0  0  0  0  0  0  0  0
   10.4764   -6.3692   -0.0000 C   0  0  0  0  0  0  0  0  0  0  0  0
   10.0960   -3.4876   -0.0000 C   0  0  0  0  0  0  0  0  0  0  0  0
    5.3795   -2.2529   -0.0000 C   0  0  0  0  0  0  0  0  0  0  0  0
    7.4431   -1.2392   -0.0000 C   0  0  0  0  0  0  0  0  0  0  0  0
    9.9089   -2.8058   -0.0000 C   0  0  0  0  0  0  0  0  0  0  0  0
    8.1081   -1.3267   -0.0000 C   0  0  0  0  0  0  0  0  0  0  0  0
   11.6960   -5.4832   -0.0000 C   0  0  0  0  0  0  0  0  0  0  0  0
   11.5863   -4.1524   -0.0000 C   0  0  0  0  0  0  0  0  0  0  0  0
    5.2220   -0.7537   -0.0000 C   0  0  0  0  0  0  0  0  0  0  0  0
    4.1600   -3.1390   -0.0000 C   0  0  0  0  0  0  0  0  0  0  0  0
    6.5991   -0.1406   -0.0000 N   0  0  0  0  0  0  0  0  0  0  0  0
   10.4615   -1.4435   -0.0000 C   0  0  0  0  0  0  0  0  0  0  0  0
   10.8007   -4.1359   -0.0000 C   0  0  0  0  0  0  0  0  0  0  0  0
    9.2900   -0.4948   -0.0000 N   0  0  0  0  0  0  0  0  0  0  0  0
    3.8448   -0.1406   -0.0000 C   0  0  0  0  0  0  0  0  0  0  0  0
    2.7829   -2.5258   -0.0000 C   0  0  0  0  0  0  0  0  0  0  0  0
    6.9125    1.3339   -0.0000 C   0  0  0  0  0  0  0  0  0  0  0  0
   11.9504   -1.2077   -0.0000 C   0  0  0  0  0  0  0  0  0  0  0  0
   12.3588   -3.7865   -0.0000 C   0  0  0  0  0  0  0  0  0  0  0  0
    9.3689    1.0105   -0.0000 C   0  0  0  0  0  0  0  0  0  0  0  0
    2.6253   -1.0267   -0.0000 C   0  0  0  0  0  0  0  0  0  0  0  0
    5.7923    2.3426   -0.0000 C   0  0  0  0  0  0  0  0  0  0  0  0
   12.8991   -2.3792   -0.0000 C   0  0  0  0  0  0  0  0  0  0  0  0
   10.7120    1.6949   -0.0000 C   0  0  0  0  0  0  0  0  0  0  0  0
    6.1057    3.8171   -0.0000 C   0  0  0  0  0  0  0  0  0  0  0  0
   10.7909    3.2003   -0.0000 C   0  0  0  0  0  0  0  0  0  0  0  0
    4.9854    4.8258   -0.0000 C   0  0  0  0  0  0  0  0  0  0  0  0
   12.1341    3.8847   -0.0000 C   0  0  0  0  0  0  0  0  0  0  0  0
  1  2  2  0  0  0  0
  2  3  1  0  0  0  0
  2  4  1  0  0  0  0
  3  5  1  0  0  0  0
  4  6  1  0  0  0  0
  4  7  1  0  0  0  0
  4  8  1  0  0  0  0
  5  9  1  0  0  0  0
  6 10  1  0  0  0  0
  7 11  1  0  0  0  0
  7 12  2  0  0  0  0
  8 13  1  0  0  0  0
  8 14  2  0  0  0  0
  9 15  2  0  0  0  0
 10 16  2  0  0  0  0
 11 17  2  0  0  0  0
 11 18  1  0  0  0  0
 12 19  1  0  0  0  0
 13 20  2  0  0  0  0
 13 21  1  0  0  0  0
 14 22  1  0  0  0  0
 17 23  1  0  0  0  0
 18 24  2  0  0  0  0
 19 25  1  0  0  0  0
 20 26  1  0  0  0  0
 21 27  2  0  0  0  0
 22 28  1  0  0  0  0
 23 29  2  0  0  0  0
 25 30  1  0  0  0  0
 26 31  2  0  0  0  0
 28 32  1  0  0  0  0
 30 33  1  0  0  0  0
 32 34  1  0  0  0  0
 33 35  1  0  0  0  0
 34 36  1  0  0  0  0
  5  6  2  0  0  0  0
 15 16  1  0  0  0  0
 17 19  1  0  0  0  0
 20 22  1  0  0  0  0
 24 29  1  0  0  0  0
 27 31  1  0  0  0  0
M  END
>  <S/N>
215

>  <Compound ID>
C_230

>  <PubChem CID>
127053749

>  <Isomeric SMILES>
CCCCN1C=C(C2=CC=CC=C21)C3(C4=CC=CC=C4NC3=O)C5=CN(C6=CC=CC=C65)CCCC

>  <IC50 (�M)>
5.9

>  <pIC50>
5.23

$$$$
C_231
Actelion Java MolfileCreator 1.0

 36 41  0  0  0  0  0  0  0  0999 V2000
    7.9421   -2.3331   -0.0000 O   0  0  0  0  0  0  0  0  0  0  0  0
    8.5552   -0.9559   -0.0000 C   0  0  0  0  0  0  0  0  0  0  0  0
   10.0297   -0.6425   -0.0000 N   0  0  0  0  0  0  0  0  0  0  0  0
    7.8015    0.3495   -0.0000 C   0  0  0  0  0  0  0  0  0  0  0  0
   10.1873    0.8567   -0.0000 C   0  0  0  0  0  0  0  0  0  0  0  0
    8.8102    1.4698   -0.0000 C   0  0  0  0  0  0  0  0  0  0  0  0
    6.3023    0.5071   -0.0000 C   0  0  0  0  0  0  0  0  0  0  0  0
    7.2613    1.7569   -0.0000 C   0  0  0  0  0  0  0  0  0  0  0  0
   11.4069    1.7427   -0.0000 C   0  0  0  0  0  0  0  0  0  0  0  0
    8.7211    2.8541   -0.0000 C   0  0  0  0  0  0  0  0  0  0  0  0
    5.2936   -0.6131   -0.0000 C   0  0  0  0  0  0  0  0  0  0  0  0
    5.4475    1.6808   -0.0000 C   0  0  0  0  0  0  0  0  0  0  0  0
    8.0371    3.0330   -0.0000 C   0  0  0  0  0  0  0  0  0  0  0  0
    5.8557    2.2129   -0.0000 C   0  0  0  0  0  0  0  0  0  0  0  0
   11.2493    3.2419   -0.0000 C   0  0  0  0  0  0  0  0  0  0  0  0
   10.0420    3.8123   -0.0000 C   0  0  0  0  0  0  0  0  0  0  0  0
    3.9165   -0.0000   -0.0000 C   0  0  0  0  0  0  0  0  0  0  0  0
    5.4512   -2.1123   -0.0000 C   0  0  0  0  0  0  0  0  0  0  0  0
    4.0741    1.4992   -0.0000 N   0  0  0  0  0  0  0  0  0  0  0  0
    7.1336    4.1926   -0.0000 C   0  0  0  0  0  0  0  0  0  0  0  0
    9.6349    3.1402   -0.0000 C   0  0  0  0  0  0  0  0  0  0  0  0
    5.7263    3.6524   -0.0000 N   0  0  0  0  0  0  0  0  0  0  0  0
    2.6969   -0.8861   -0.0000 C   0  0  0  0  0  0  0  0  0  0  0  0
    4.2316   -2.9984   -0.0000 C   0  0  0  0  0  0  0  0  0  0  0  0
    2.9538    2.5079   -0.0000 C   0  0  0  0  0  0  0  0  0  0  0  0
    7.6738    5.6000   -0.0000 C   0  0  0  0  0  0  0  0  0  0  0  0
   10.1114    4.6643   -0.0000 C   0  0  0  0  0  0  0  0  0  0  0  0
    4.4620    4.4734   -0.0000 C   0  0  0  0  0  0  0  0  0  0  0  0
    2.8545   -2.3853   -0.0000 C   0  0  0  0  0  0  0  0  0  0  0  0
    1.5201    2.0421   -0.0000 C   0  0  0  0  0  0  0  0  0  0  0  0
    9.1627    5.8358   -0.0000 C   0  0  0  0  0  0  0  0  0  0  0  0
    4.5409    5.9788   -0.0000 C   0  0  0  0  0  0  0  0  0  0  0  0
    1.2067    0.5675   -0.0000 C   0  0  0  0  0  0  0  0  0  0  0  0
    0.3999    3.0507   -0.0000 C   0  0  0  0  0  0  0  0  0  0  0  0
    5.8841    6.6632   -0.0000 C   0  0  0  0  0  0  0  0  0  0  0  0
    3.2767    6.7999   -0.0000 C   0  0  0  0  0  0  0  0  0  0  0  0
  1  2  2  0  0  0  0
  2  3  1  0  0  0  0
  2  4  1  0  0  0  0
  3  5  1  0  0  0  0
  4  6  1  0  0  0  0
  4  7  1  0  0  0  0
  4  8  1  0  0  0  0
  5  9  1  0  0  0  0
  6 10  1  0  0  0  0
  7 11  1  0  0  0  0
  7 12  2  0  0  0  0
  8 13  1  0  0  0  0
  8 14  2  0  0  0  0
  9 15  2  0  0  0  0
 10 16  2  0  0  0  0
 11 17  2  0  0  0  0
 11 18  1  0  0  0  0
 12 19  1  0  0  0  0
 13 20  2  0  0  0  0
 13 21  1  0  0  0  0
 14 22  1  0  0  0  0
 17 23  1  0  0  0  0
 18 24  2  0  0  0  0
 19 25  1  0  0  0  0
 20 26  1  0  0  0  0
 21 27  2  0  0  0  0
 22 28  1  0  0  0  0
 23 29  2  0  0  0  0
 25 30  1  0  0  0  0
 26 31  2  0  0  0  0
 28 32  1  0  0  0  0
 30 33  1  0  0  0  0
 30 34  1  0  0  0  0
 32 35  1  0  0  0  0
 32 36  1  0  0  0  0
  5  6  2  0  0  0  0
 15 16  1  0  0  0  0
 17 19  1  0  0  0  0
 20 22  1  0  0  0  0
 24 29  1  0  0  0  0
 27 31  1  0  0  0  0
M  END
>  <S/N>
216

>  <Compound ID>
C_231

>  <PubChem CID>
127053750

>  <Isomeric SMILES>
CC(C)CN1C=C(C2=CC=CC=C21)C3(C4=CC=CC=C4NC3=O)C5=CN(C6=CC=CC=C65)CC(C)C

>  <IC50 (�M)>
5.9

>  <pIC50>
5.23

$$$$
C_232
Actelion Java MolfileCreator 1.0

 27 30  0  0  0  0  0  0  0  0999 V2000
    6.4639   -1.0978   -0.0000 O   0  0  0  0  0  0  0  0  0  0  0  0
    4.9721   -1.2546   -0.0000 C   0  0  0  0  0  0  0  0  0  0  0  0
    3.9684   -0.1399   -0.0000 O   0  0  0  0  0  0  0  0  0  0  0  0
    4.2221   -2.5537   -0.0000 C   0  0  0  0  0  0  0  0  0  0  0  0
    2.5981   -0.7500   -0.0000 C   0  0  0  0  0  0  0  0  0  0  0  0
    4.8322   -3.9240   -0.0000 O   0  0  0  0  0  0  0  0  0  0  0  0
    2.7549   -2.2418   -0.0000 C   0  0  0  0  0  0  0  0  0  0  0  0
    1.2990   -0.0000   -0.0000 C   0  0  0  0  0  0  0  0  0  0  0  0
    1.6402   -3.2455   -0.0000 C   0  0  0  0  0  0  0  0  0  0  0  0
    1.2990    1.5000   -0.0000 C   0  0  0  0  0  0  0  0  0  0  0  0
    0.2136   -2.7820   -0.0000 C   0  0  0  0  0  0  0  0  0  0  0  0
    1.9520   -4.7127   -0.0000 C   0  0  0  0  0  0  0  0  0  0  0  0
    2.5981    2.2500   -0.0000 C   0  0  0  0  0  0  0  0  0  0  0  0
    0.0000    2.2500   -0.0000 C   0  0  0  0  0  0  0  0  0  0  0  0
   -0.9012   -3.7857   -0.0000 C   0  0  0  0  0  0  0  0  0  0  0  0
    0.8373   -5.7164   -0.0000 C   0  0  0  0  0  0  0  0  0  0  0  0
    2.5981    3.7500   -0.0000 C   0  0  0  0  0  0  0  0  0  0  0  0
    0.0000    3.7500   -0.0000 C   0  0  0  0  0  0  0  0  0  0  0  0
   -0.5893   -5.2529   -0.0000 C   0  0  0  0  0  0  0  0  0  0  0  0
    1.2990    4.5000   -0.0000 C   0  0  0  0  0  0  0  0  0  0  0  0
    3.8971    4.5000   -0.0000 C   0  0  0  0  0  0  0  0  0  0  0  0
   -1.7040   -6.2566   -0.0000 O   0  0  0  0  0  0  0  0  0  0  0  0
    1.2990    6.0000   -0.0000 O   0  0  0  0  0  0  0  0  0  0  0  0
    3.8971    6.0000   -0.0000 C   0  0  0  0  0  0  0  0  0  0  0  0
    2.5981    6.7500   -0.0000 C   0  0  0  0  0  0  0  0  0  0  0  0
    3.3481    8.0490   -0.0000 C   0  0  0  0  0  0  0  0  0  0  0  0
    1.8481    8.0490   -0.0000 C   0  0  0  0  0  0  0  0  0  0  0  0
  1  2  2  0  0  0  0
  2  3  1  0  0  0  0
  2  4  1  0  0  0  0
  3  5  1  0  0  0  0
  4  6  1  0  0  0  0
  4  7  2  0  0  0  0
  5  8  1  6  0  0  0
  7  9  1  0  0  0  0
  8 10  1  0  0  0  0
  9 11  2  0  0  0  0
  9 12  1  0  0  0  0
 10 13  2  0  0  0  0
 10 14  1  0  0  0  0
 11 15  1  0  0  0  0
 12 16  2  0  0  0  0
 13 17  1  0  0  0  0
 14 18  2  0  0  0  0
 15 19  2  0  0  0  0
 17 20  2  0  0  0  0
 17 21  1  0  0  0  0
 19 22  1  0  0  0  0
 20 23  1  0  0  0  0
 21 24  1  0  0  0  0
 23 25  1  0  0  0  0
 25 26  1  0  0  0  0
 25 27  1  0  0  0  0
  5  7  1  0  0  0  0
 16 19  1  0  0  0  0
 18 20  1  0  0  0  0
 24 25  1  0  0  0  0
M  END
>  <S/N>
217

>  <Compound ID>
C_232

>  <PubChem CID>
129774355

>  <Isomeric SMILES>
CC1(CCC2=C(O1)C=CC(=C2)CC3C(=C(C(=O)O3)O)C4=CC=C(C=C4)O)C

>  <IC50 (�M)>
11.65

>  <pIC50>
4.93

$$$$
C_233
Actelion Java MolfileCreator 1.0

 37 41  0  0  0  0  0  0  0  0999 V2000
    4.3301   -0.0000   -0.0000 S   0  0  0  0  0  0  0  0  0  0  0  0
    5.1962   -0.5000   -0.0000 C   0  0  0  0  0  0  0  0  0  0  0  0
    3.4641   -0.5000   -0.0000 C   0  0  0  0  0  0  0  0  0  0  0  0
    5.1962   -1.5000   -0.0000 N   0  0  0  0  0  0  0  0  0  0  0  0
    6.0622   -0.0000   -0.0000 N   0  0  0  0  0  0  0  0  0  0  0  0
    2.5981   -0.0000   -0.0000 C   0  0  0  0  0  0  0  0  0  0  0  0
    6.0622   -2.0000   -0.0000 N   0  0  0  0  0  0  0  0  0  0  0  0
    6.9282   -0.5000   -0.0000 C   0  0  0  0  0  0  0  0  0  0  0  0
    2.5981    1.0000   -0.0000 O   0  0  0  0  0  0  0  0  0  0  0  0
    1.7321   -0.5000   -0.0000 C   0  0  0  0  0  0  0  0  0  0  0  0
    6.9282   -1.5000   -0.0000 C   0  0  0  0  0  0  0  0  0  0  0  0
    7.7942   -0.0000   -0.0000 C   0  0  0  0  0  0  0  0  0  0  0  0
    0.8660   -0.0000   -0.0000 O   0  0  0  0  0  0  0  0  0  0  0  0
    7.7942   -2.0000   -0.0000 C   0  0  0  0  0  0  0  0  0  0  0  0
    8.6603   -0.5000   -0.0000 C   0  0  0  0  0  0  0  0  0  0  0  0
    7.7942    1.0000   -0.0000 C   0  0  0  0  0  0  0  0  0  0  0  0
    0.0000   -0.5000   -0.0000 C   0  0  0  0  0  0  0  0  0  0  0  0
    7.7942   -3.0000   -0.0000 C   0  0  0  0  0  0  0  0  0  0  0  0
    8.6603   -1.5000   -0.0000 C   0  0  0  0  0  0  0  0  0  0  0  0
    9.5263    0.0000   -0.0000 C   0  0  0  0  0  0  0  0  0  0  0  0
    8.6603    1.5000   -0.0000 C   0  0  0  0  0  0  0  0  0  0  0  0
   -0.8660    0.0000   -0.0000 C   0  0  0  0  0  0  0  0  0  0  0  0
   -0.0000   -1.5000   -0.0000 C   0  0  0  0  0  0  0  0  0  0  0  0
    8.6603   -3.5000   -0.0000 C   0  0  0  0  0  0  0  0  0  0  0  0
    9.5263   -2.0000   -0.0000 C   0  0  0  0  0  0  0  0  0  0  0  0
   10.3923   -0.5000   -0.0000 F   0  0  0  0  0  0  0  0  0  0  0  0
    9.5263    1.0000   -0.0000 C   0  0  0  0  0  0  0  0  0  0  0  0
   -1.7321   -0.5000   -0.0000 C   0  0  0  0  0  0  0  0  0  0  0  0
   -0.8660   -2.0000   -0.0000 C   0  0  0  0  0  0  0  0  0  0  0  0
    8.6603   -4.5000   -0.0000 F   0  0  0  0  0  0  0  0  0  0  0  0
    9.5263   -3.0000   -0.0000 C   0  0  0  0  0  0  0  0  0  0  0  0
   -2.5981    0.0000   -0.0000 O   0  0  0  0  0  0  0  0  0  0  0  0
   -1.7321   -1.5000   -0.0000 C   0  0  0  0  0  0  0  0  0  0  0  0
   -3.4641   -0.5000   -0.0000 C   0  0  0  0  0  0  0  0  0  0  0  0
   -2.5981   -2.0000   -0.0000 C   0  0  0  0  0  0  0  0  0  0  0  0
   -4.3301    0.0000   -0.0000 O   0  0  0  0  0  0  0  0  0  0  0  0
   -3.4641   -1.5000   -0.0000 C   0  0  0  0  0  0  0  0  0  0  0  0
  1  2  1  0  0  0  0
  1  3  1  0  0  0  0
  2  4  2  0  0  0  0
  2  5  1  0  0  0  0
  3  6  1  0  0  0  0
  4  7  1  0  0  0  0
  5  8  2  0  0  0  0
  6  9  1  6  0  0  0
  6 10  1  0  0  0  0
  7 11  2  0  0  0  0
  8 12  1  0  0  0  0
 10 13  1  0  0  0  0
 11 14  1  0  0  0  0
 12 15  2  0  0  0  0
 12 16  1  0  0  0  0
 13 17  1  0  0  0  0
 14 18  2  0  0  0  0
 14 19  1  0  0  0  0
 15 20  1  0  0  0  0
 16 21  2  0  0  0  0
 17 22  2  0  0  0  0
 17 23  1  0  0  0  0
 18 24  1  0  0  0  0
 19 25  2  0  0  0  0
 20 26  1  0  0  0  0
 20 27  2  0  0  0  0
 22 28  1  0  0  0  0
 23 29  2  0  0  0  0
 24 30  1  0  0  0  0
 24 31  2  0  0  0  0
 28 32  1  0  0  0  0
 28 33  2  0  0  0  0
 32 34  1  0  0  0  0
 33 35  1  0  0  0  0
 34 36  2  0  0  0  0
 34 37  1  0  0  0  0
  8 11  1  0  0  0  0
 21 27  1  0  0  0  0
 25 31  1  0  0  0  0
 29 33  1  0  0  0  0
 35 37  2  0  0  0  0
M  END
>  <S/N>
218

>  <Compound ID>
C_233

>  <PubChem CID>
132522820

>  <Isomeric SMILES>
C1=CC(=CC(=C1)F)C2=C(N=NC(=N2)SCC(COC3=CC4=C(C=C3)C=CC(=O)O4)O)C5=CC(=CC=C5)F

>  <IC50 (�M)>
32

>  <pIC50>
4.49

$$$$
C_234
Actelion Java MolfileCreator 1.0

 37 41  0  0  0  0  0  0  0  0999 V2000
    4.3301   -0.0000   -0.0000 S   0  0  0  0  0  0  0  0  0  0  0  0
    5.1962   -0.5000   -0.0000 C   0  0  0  0  0  0  0  0  0  0  0  0
    3.4641   -0.5000   -0.0000 C   0  0  0  0  0  0  0  0  0  0  0  0
    5.1962   -1.5000   -0.0000 N   0  0  0  0  0  0  0  0  0  0  0  0
    6.0622   -0.0000   -0.0000 N   0  0  0  0  0  0  0  0  0  0  0  0
    2.5981   -0.0000   -0.0000 C   0  0  0  0  0  0  0  0  0  0  0  0
    6.0622   -2.0000   -0.0000 N   0  0  0  0  0  0  0  0  0  0  0  0
    6.9282   -0.5000   -0.0000 C   0  0  0  0  0  0  0  0  0  0  0  0
    2.5981    1.0000   -0.0000 O   0  0  0  0  0  0  0  0  0  0  0  0
    1.7321   -0.5000   -0.0000 C   0  0  0  0  0  0  0  0  0  0  0  0
    6.9282   -1.5000   -0.0000 C   0  0  0  0  0  0  0  0  0  0  0  0
    7.7942   -0.0000   -0.0000 C   0  0  0  0  0  0  0  0  0  0  0  0
    0.8660   -0.0000   -0.0000 O   0  0  0  0  0  0  0  0  0  0  0  0
    7.7942   -2.0000   -0.0000 C   0  0  0  0  0  0  0  0  0  0  0  0
    8.6603   -0.5000   -0.0000 C   0  0  0  0  0  0  0  0  0  0  0  0
    7.7942    1.0000   -0.0000 C   0  0  0  0  0  0  0  0  0  0  0  0
    0.0000   -0.5000   -0.0000 C   0  0  0  0  0  0  0  0  0  0  0  0
    7.7942   -3.0000   -0.0000 C   0  0  0  0  0  0  0  0  0  0  0  0
    8.6603   -1.5000   -0.0000 C   0  0  0  0  0  0  0  0  0  0  0  0
    9.5263    0.0000   -0.0000 C   0  0  0  0  0  0  0  0  0  0  0  0
    8.6603    1.5000   -0.0000 C   0  0  0  0  0  0  0  0  0  0  0  0
   -0.8660    0.0000   -0.0000 C   0  0  0  0  0  0  0  0  0  0  0  0
   -0.0000   -1.5000   -0.0000 C   0  0  0  0  0  0  0  0  0  0  0  0
    8.6603   -3.5000   -0.0000 C   0  0  0  0  0  0  0  0  0  0  0  0
    9.5263   -2.0000   -0.0000 C   0  0  0  0  0  0  0  0  0  0  0  0
    9.5263    1.0000   -0.0000 C   0  0  0  0  0  0  0  0  0  0  0  0
   -1.7321   -0.5000   -0.0000 C   0  0  0  0  0  0  0  0  0  0  0  0
   -0.8660   -2.0000   -0.0000 C   0  0  0  0  0  0  0  0  0  0  0  0
    9.5263   -3.0000   -0.0000 C   0  0  0  0  0  0  0  0  0  0  0  0
   10.3923    1.5000   -0.0000 F   0  0  0  0  0  0  0  0  0  0  0  0
   -2.5981    0.0000   -0.0000 O   0  0  0  0  0  0  0  0  0  0  0  0
   -1.7321   -1.5000   -0.0000 C   0  0  0  0  0  0  0  0  0  0  0  0
   10.3923   -3.5000   -0.0000 F   0  0  0  0  0  0  0  0  0  0  0  0
   -3.4641   -0.5000   -0.0000 C   0  0  0  0  0  0  0  0  0  0  0  0
   -2.5981   -2.0000   -0.0000 C   0  0  0  0  0  0  0  0  0  0  0  0
   -4.3301    0.0000   -0.0000 O   0  0  0  0  0  0  0  0  0  0  0  0
   -3.4641   -1.5000   -0.0000 C   0  0  0  0  0  0  0  0  0  0  0  0
  1  2  1  0  0  0  0
  1  3  1  0  0  0  0
  2  4  2  0  0  0  0
  2  5  1  0  0  0  0
  3  6  1  0  0  0  0
  4  7  1  0  0  0  0
  5  8  2  0  0  0  0
  6  9  1  6  0  0  0
  6 10  1  0  0  0  0
  7 11  2  0  0  0  0
  8 12  1  0  0  0  0
 10 13  1  0  0  0  0
 11 14  1  0  0  0  0
 12 15  2  0  0  0  0
 12 16  1  0  0  0  0
 13 17  1  0  0  0  0
 14 18  2  0  0  0  0
 14 19  1  0  0  0  0
 15 20  1  0  0  0  0
 16 21  2  0  0  0  0
 17 22  2  0  0  0  0
 17 23  1  0  0  0  0
 18 24  1  0  0  0  0
 19 25  2  0  0  0  0
 20 26  2  0  0  0  0
 22 27  1  0  0  0  0
 23 28  2  0  0  0  0
 24 29  2  0  0  0  0
 26 30  1  0  0  0  0
 27 31  1  0  0  0  0
 27 32  2  0  0  0  0
 29 33  1  0  0  0  0
 31 34  1  0  0  0  0
 32 35  1  0  0  0  0
 34 36  2  0  0  0  0
 34 37  1  0  0  0  0
  8 11  1  0  0  0  0
 21 26  1  0  0  0  0
 25 29  1  0  0  0  0
 28 32  1  0  0  0  0
 35 37  2  0  0  0  0
M  END
>  <S/N>
219

>  <Compound ID>
C_234

>  <PubChem CID>
132522821

>  <Isomeric SMILES>
C1=CC(=CC2=C1C=CC(=O)O2)OCC(CSC3=NC(=C(N=N3)C4=CC=C(C=C4)F)C5=CC=C(C=C5)F)O

>  <IC50 (�M)>
32

>  <pIC50>
4.49

$$$$
C_235
Actelion Java MolfileCreator 1.0

 35 39  0  0  0  0  0  0  0  0999 V2000
    4.3301   -0.0000   -0.0000 S   0  0  0  0  0  0  0  0  0  0  0  0
    5.1962   -0.5000   -0.0000 C   0  0  0  0  0  0  0  0  0  0  0  0
    3.4641   -0.5000   -0.0000 C   0  0  0  0  0  0  0  0  0  0  0  0
    5.1962   -1.5000   -0.0000 N   0  0  0  0  0  0  0  0  0  0  0  0
    6.0622   -0.0000   -0.0000 N   0  0  0  0  0  0  0  0  0  0  0  0
    2.5981   -0.0000   -0.0000 C   0  0  0  0  0  0  0  0  0  0  0  0
    6.0622   -2.0000   -0.0000 N   0  0  0  0  0  0  0  0  0  0  0  0
    6.9282   -0.5000   -0.0000 C   0  0  0  0  0  0  0  0  0  0  0  0
    2.5981    1.0000   -0.0000 O   0  0  0  0  0  0  0  0  0  0  0  0
    1.7321   -0.5000   -0.0000 C   0  0  0  0  0  0  0  0  0  0  0  0
    6.9282   -1.5000   -0.0000 C   0  0  0  0  0  0  0  0  0  0  0  0
    7.7942   -0.0000   -0.0000 C   0  0  0  0  0  0  0  0  0  0  0  0
    0.8660   -0.0000   -0.0000 O   0  0  0  0  0  0  0  0  0  0  0  0
    7.7942   -2.0000   -0.0000 C   0  0  0  0  0  0  0  0  0  0  0  0
    8.6603   -0.5000   -0.0000 C   0  0  0  0  0  0  0  0  0  0  0  0
    7.7942    1.0000   -0.0000 C   0  0  0  0  0  0  0  0  0  0  0  0
    0.0000   -0.5000   -0.0000 C   0  0  0  0  0  0  0  0  0  0  0  0
    7.7942   -3.0000   -0.0000 C   0  0  0  0  0  0  0  0  0  0  0  0
    8.6603   -1.5000   -0.0000 C   0  0  0  0  0  0  0  0  0  0  0  0
    9.5263    0.0000   -0.0000 C   0  0  0  0  0  0  0  0  0  0  0  0
    8.6603    1.5000   -0.0000 C   0  0  0  0  0  0  0  0  0  0  0  0
   -0.8660    0.0000   -0.0000 C   0  0  0  0  0  0  0  0  0  0  0  0
   -0.0000   -1.5000   -0.0000 C   0  0  0  0  0  0  0  0  0  0  0  0
    8.6603   -3.5000   -0.0000 C   0  0  0  0  0  0  0  0  0  0  0  0
    9.5263   -2.0000   -0.0000 C   0  0  0  0  0  0  0  0  0  0  0  0
    9.5263    1.0000   -0.0000 C   0  0  0  0  0  0  0  0  0  0  0  0
   -1.7321   -0.5000   -0.0000 C   0  0  0  0  0  0  0  0  0  0  0  0
   -0.8660   -2.0000   -0.0000 C   0  0  0  0  0  0  0  0  0  0  0  0
    9.5263   -3.0000   -0.0000 C   0  0  0  0  0  0  0  0  0  0  0  0
   -2.5981    0.0000   -0.0000 O   0  0  0  0  0  0  0  0  0  0  0  0
   -1.7321   -1.5000   -0.0000 C   0  0  0  0  0  0  0  0  0  0  0  0
   -3.4641   -0.5000   -0.0000 C   0  0  0  0  0  0  0  0  0  0  0  0
   -2.5981   -2.0000   -0.0000 C   0  0  0  0  0  0  0  0  0  0  0  0
   -4.3301    0.0000   -0.0000 O   0  0  0  0  0  0  0  0  0  0  0  0
   -3.4641   -1.5000   -0.0000 C   0  0  0  0  0  0  0  0  0  0  0  0
  1  2  1  0  0  0  0
  1  3  1  0  0  0  0
  2  4  2  0  0  0  0
  2  5  1  0  0  0  0
  3  6  1  0  0  0  0
  4  7  1  0  0  0  0
  5  8  2  0  0  0  0
  6  9  1  6  0  0  0
  6 10  1  0  0  0  0
  7 11  2  0  0  0  0
  8 12  1  0  0  0  0
 10 13  1  0  0  0  0
 11 14  1  0  0  0  0
 12 15  2  0  0  0  0
 12 16  1  0  0  0  0
 13 17  1  0  0  0  0
 14 18  2  0  0  0  0
 14 19  1  0  0  0  0
 15 20  1  0  0  0  0
 16 21  2  0  0  0  0
 17 22  2  0  0  0  0
 17 23  1  0  0  0  0
 18 24  1  0  0  0  0
 19 25  2  0  0  0  0
 20 26  2  0  0  0  0
 22 27  1  0  0  0  0
 23 28  2  0  0  0  0
 24 29  2  0  0  0  0
 27 30  1  0  0  0  0
 27 31  2  0  0  0  0
 30 32  1  0  0  0  0
 31 33  1  0  0  0  0
 32 34  2  0  0  0  0
 32 35  1  0  0  0  0
  8 11  1  0  0  0  0
 21 26  1  0  0  0  0
 25 29  1  0  0  0  0
 28 31  1  0  0  0  0
 33 35  2  0  0  0  0
M  END
>  <S/N>
220

>  <Compound ID>
C_235

>  <PubChem CID>
132522822

>  <Isomeric SMILES>
C1=CC=C(C=C1)C2=C(N=NC(=N2)SCC(COC3=CC4=C(C=C3)C=CC(=O)O4)O)C5=CC=CC=C5

>  <IC50 (�M)>
32

>  <pIC50>
4.49

$$$$
C_236
Actelion Java MolfileCreator 1.0

 33 37  0  0  0  0  0  0  0  0999 V2000
    4.3301   -0.0000   -0.0000 S   0  0  0  0  0  0  0  0  0  0  0  0
    5.1962   -0.5000   -0.0000 C   0  0  0  0  0  0  0  0  0  0  0  0
    3.4641   -0.5000   -0.0000 C   0  0  0  0  0  0  0  0  0  0  0  0
    5.1962   -1.5000   -0.0000 N   0  0  0  0  0  0  0  0  0  0  0  0
    6.0622   -0.0000   -0.0000 N   0  0  0  0  0  0  0  0  0  0  0  0
    2.5981   -0.0000   -0.0000 C   0  0  0  0  0  0  0  0  0  0  0  0
    6.0622   -2.0000   -0.0000 N   0  0  0  0  0  0  0  0  0  0  0  0
    6.9282   -0.5000   -0.0000 C   0  0  0  0  0  0  0  0  0  0  0  0
    2.5981    1.0000   -0.0000 O   0  0  0  0  0  0  0  0  0  0  0  0
    1.7321   -0.5000   -0.0000 C   0  0  0  0  0  0  0  0  0  0  0  0
    6.9282   -1.5000   -0.0000 C   0  0  0  0  0  0  0  0  0  0  0  0
    7.7942   -0.0000   -0.0000 C   0  0  0  0  0  0  0  0  0  0  0  0
    0.8660   -0.0000   -0.0000 O   0  0  0  0  0  0  0  0  0  0  0  0
    7.7942   -2.0000   -0.0000 C   0  0  0  0  0  0  0  0  0  0  0  0
    8.7078   -0.4067   -0.0000 O   0  0  0  0  0  0  0  0  0  0  0  0
    7.8988    0.9945   -0.0000 C   0  0  0  0  0  0  0  0  0  0  0  0
    0.0000   -0.5000   -0.0000 C   0  0  0  0  0  0  0  0  0  0  0  0
    7.8988   -2.9945   -0.0000 O   0  0  0  0  0  0  0  0  0  0  0  0
    8.7078   -1.5933   -0.0000 C   0  0  0  0  0  0  0  0  0  0  0  0
    9.3769    0.3364   -0.0000 C   0  0  0  0  0  0  0  0  0  0  0  0
    8.8769    1.2024   -0.0000 C   0  0  0  0  0  0  0  0  0  0  0  0
   -0.8660    0.0000   -0.0000 C   0  0  0  0  0  0  0  0  0  0  0  0
   -0.0000   -1.5000   -0.0000 C   0  0  0  0  0  0  0  0  0  0  0  0
    8.8769   -3.2024   -0.0000 C   0  0  0  0  0  0  0  0  0  0  0  0
    9.3769   -2.3364   -0.0000 C   0  0  0  0  0  0  0  0  0  0  0  0
   -1.7321   -0.5000   -0.0000 C   0  0  0  0  0  0  0  0  0  0  0  0
   -0.8660   -2.0000   -0.0000 C   0  0  0  0  0  0  0  0  0  0  0  0
   -2.5981    0.0000   -0.0000 O   0  0  0  0  0  0  0  0  0  0  0  0
   -1.7321   -1.5000   -0.0000 C   0  0  0  0  0  0  0  0  0  0  0  0
   -3.4641   -0.5000   -0.0000 C   0  0  0  0  0  0  0  0  0  0  0  0
   -2.5981   -2.0000   -0.0000 C   0  0  0  0  0  0  0  0  0  0  0  0
   -4.3301    0.0000   -0.0000 O   0  0  0  0  0  0  0  0  0  0  0  0
   -3.4641   -1.5000   -0.0000 C   0  0  0  0  0  0  0  0  0  0  0  0
  1  2  1  0  0  0  0
  1  3  1  0  0  0  0
  2  4  2  0  0  0  0
  2  5  1  0  0  0  0
  3  6  1  0  0  0  0
  4  7  1  0  0  0  0
  5  8  2  0  0  0  0
  6  9  1  6  0  0  0
  6 10  1  0  0  0  0
  7 11  2  0  0  0  0
  8 12  1  0  0  0  0
 10 13  1  0  0  0  0
 11 14  1  0  0  0  0
 12 15  1  0  0  0  0
 12 16  2  0  0  0  0
 13 17  1  0  0  0  0
 14 18  1  0  0  0  0
 14 19  2  0  0  0  0
 15 20  1  0  0  0  0
 16 21  1  0  0  0  0
 17 22  2  0  0  0  0
 17 23  1  0  0  0  0
 18 24  1  0  0  0  0
 19 25  1  0  0  0  0
 22 26  1  0  0  0  0
 23 27  2  0  0  0  0
 26 28  1  0  0  0  0
 26 29  2  0  0  0  0
 28 30  1  0  0  0  0
 29 31  1  0  0  0  0
 30 32  2  0  0  0  0
 30 33  1  0  0  0  0
  8 11  1  0  0  0  0
 20 21  2  0  0  0  0
 24 25  2  0  0  0  0
 27 29  1  0  0  0  0
 31 33  2  0  0  0  0
M  END
>  <S/N>
221

>  <Compound ID>
C_236

>  <PubChem CID>
132522823

>  <Isomeric SMILES>
C1=COC(=C1)C2=C(N=NC(=N2)SCC(COC3=CC4=C(C=C3)C=CC(=O)O4)O)C5=CC=CO5

>  <IC50 (�M)>
32

>  <pIC50>
4.49

$$$$
C_237
Actelion Java MolfileCreator 1.0

 33 37  0  0  0  0  0  0  0  0999 V2000
    6.4952   -0.0000   -0.0000 S   0  0  0  0  0  0  0  0  0  0  0  0
    7.7942   -0.7500   -0.0000 C   0  0  0  0  0  0  0  0  0  0  0  0
    5.1962   -0.7500   -0.0000 C   0  0  0  0  0  0  0  0  0  0  0  0
    7.7942   -2.2500   -0.0000 N   0  0  0  0  0  0  0  0  0  0  0  0
    9.0933   -0.0000   -0.0000 N   0  0  0  0  0  0  0  0  0  0  0  0
    3.8971   -0.0000   -0.0000 C   0  0  0  0  0  0  0  0  0  0  0  0
    9.0933   -3.0000   -0.0000 N   0  0  0  0  0  0  0  0  0  0  0  0
   10.3923   -0.7500   -0.0000 C   0  0  0  0  0  0  0  0  0  0  0  0
    3.8971    1.5000   -0.0000 O   0  0  0  0  0  0  0  0  0  0  0  0
    2.5981   -0.7500   -0.0000 C   0  0  0  0  0  0  0  0  0  0  0  0
   10.3923   -2.2500   -0.0000 C   0  0  0  0  0  0  0  0  0  0  0  0
   11.6913   -0.0000   -0.0000 C   0  0  0  0  0  0  0  0  0  0  0  0
    1.2990   -0.0000   -0.0000 O   0  0  0  0  0  0  0  0  0  0  0  0
   11.6913   -3.0000   -0.0000 C   0  0  0  0  0  0  0  0  0  0  0  0
   13.0617   -0.6101   -0.0000 O   0  0  0  0  0  0  0  0  0  0  0  0
   11.8481    1.4918   -0.0000 C   0  0  0  0  0  0  0  0  0  0  0  0
    0.0000   -0.7500   -0.0000 C   0  0  0  0  0  0  0  0  0  0  0  0
   11.8481   -4.4918   -0.0000 O   0  0  0  0  0  0  0  0  0  0  0  0
   13.0617   -2.3899   -0.0000 C   0  0  0  0  0  0  0  0  0  0  0  0
   14.0654    0.5046   -0.0000 C   0  0  0  0  0  0  0  0  0  0  0  0
   13.3154    1.8037   -0.0000 C   0  0  0  0  0  0  0  0  0  0  0  0
   -1.2990    0.0000   -0.0000 C   0  0  0  0  0  0  0  0  0  0  0  0
   -0.0000   -2.2500   -0.0000 C   0  0  0  0  0  0  0  0  0  0  0  0
   13.3154   -4.8037   -0.0000 C   0  0  0  0  0  0  0  0  0  0  0  0
   14.0654   -3.5046   -0.0000 C   0  0  0  0  0  0  0  0  0  0  0  0
   -1.2990    1.5000   -0.0000 O   0  0  0  0  0  0  0  0  0  0  0  0
   -2.5981   -0.7500   -0.0000 O   0  0  0  0  0  0  0  0  0  0  0  0
   -1.2990   -3.0000   -0.0000 C   0  0  0  0  0  0  0  0  0  0  0  0
   -2.5981   -2.2500   -0.0000 C   0  0  0  0  0  0  0  0  0  0  0  0
   -1.2990   -4.5000   -0.0000 C   0  0  0  0  0  0  0  0  0  0  0  0
   -3.8971   -3.0000   -0.0000 C   0  0  0  0  0  0  0  0  0  0  0  0
   -2.5981   -5.2500   -0.0000 C   0  0  0  0  0  0  0  0  0  0  0  0
   -3.8971   -4.5000   -0.0000 C   0  0  0  0  0  0  0  0  0  0  0  0
  1  2  1  0  0  0  0
  1  3  1  0  0  0  0
  2  4  2  0  0  0  0
  2  5  1  0  0  0  0
  3  6  1  0  0  0  0
  4  7  1  0  0  0  0
  5  8  2  0  0  0  0
  6  9  1  6  0  0  0
  6 10  1  0  0  0  0
  7 11  2  0  0  0  0
  8 12  1  0  0  0  0
 10 13  1  0  0  0  0
 11 14  1  0  0  0  0
 12 15  1  0  0  0  0
 12 16  2  0  0  0  0
 13 17  1  0  0  0  0
 14 18  1  0  0  0  0
 14 19  2  0  0  0  0
 15 20  1  0  0  0  0
 16 21  1  0  0  0  0
 17 22  1  0  0  0  0
 17 23  2  0  0  0  0
 18 24  1  0  0  0  0
 19 25  1  0  0  0  0
 22 26  2  0  0  0  0
 22 27  1  0  0  0  0
 23 28  1  0  0  0  0
 27 29  1  0  0  0  0
 28 30  2  0  0  0  0
 29 31  2  0  0  0  0
 30 32  1  0  0  0  0
 31 33  1  0  0  0  0
  8 11  1  0  0  0  0
 20 21  2  0  0  0  0
 24 25  2  0  0  0  0
 28 29  1  0  0  0  0
 32 33  2  0  0  0  0
M  END
>  <S/N>
222

>  <Compound ID>
C_237

>  <PubChem CID>
132522824

>  <Isomeric SMILES>
C1=CC=C2C(=C1)C=C(C(=O)O2)OCC(CSC3=NC(=C(N=N3)C4=CC=CO4)C5=CC=CO5)O

>  <IC50 (�M)>
32

>  <pIC50>
4.49

$$$$
C_238
Actelion Java MolfileCreator 1.0

 37 41  0  0  0  0  0  0  0  0999 V2000
    4.3301   -0.0000   -0.0000 S   0  0  0  0  0  0  0  0  0  0  0  0
    5.1962   -0.5000   -0.0000 C   0  0  0  0  0  0  0  0  0  0  0  0
    3.4641   -0.5000   -0.0000 C   0  0  0  0  0  0  0  0  0  0  0  0
    5.1962   -1.5000   -0.0000 N   0  0  0  0  0  0  0  0  0  0  0  0
    6.0622   -0.0000   -0.0000 N   0  0  0  0  0  0  0  0  0  0  0  0
    2.5981   -0.0000   -0.0000 C   0  0  0  0  0  0  0  0  0  0  0  0
    6.0622   -2.0000   -0.0000 N   0  0  0  0  0  0  0  0  0  0  0  0
    6.9282   -0.5000   -0.0000 C   0  0  0  0  0  0  0  0  0  0  0  0
    2.5981    1.0000   -0.0000 O   0  0  0  0  0  0  0  0  0  0  0  0
    1.7321   -0.5000   -0.0000 C   0  0  0  0  0  0  0  0  0  0  0  0
    6.9282   -1.5000   -0.0000 C   0  0  0  0  0  0  0  0  0  0  0  0
    7.7942   -0.0000   -0.0000 C   0  0  0  0  0  0  0  0  0  0  0  0
    0.8660   -0.0000   -0.0000 O   0  0  0  0  0  0  0  0  0  0  0  0
    7.7942   -2.0000   -0.0000 C   0  0  0  0  0  0  0  0  0  0  0  0
    8.6603   -0.5000   -0.0000 C   0  0  0  0  0  0  0  0  0  0  0  0
    7.7942    1.0000   -0.0000 C   0  0  0  0  0  0  0  0  0  0  0  0
    0.0000   -0.5000   -0.0000 C   0  0  0  0  0  0  0  0  0  0  0  0
    7.7942   -3.0000   -0.0000 C   0  0  0  0  0  0  0  0  0  0  0  0
    8.6603   -1.5000   -0.0000 C   0  0  0  0  0  0  0  0  0  0  0  0
    9.5263    0.0000   -0.0000 C   0  0  0  0  0  0  0  0  0  0  0  0
    8.6603    1.5000   -0.0000 C   0  0  0  0  0  0  0  0  0  0  0  0
   -0.8660    0.0000   -0.0000 C   0  0  0  0  0  0  0  0  0  0  0  0
   -0.0000   -1.5000   -0.0000 C   0  0  0  0  0  0  0  0  0  0  0  0
    8.6603   -3.5000   -0.0000 C   0  0  0  0  0  0  0  0  0  0  0  0
    9.5263   -2.0000   -0.0000 C   0  0  0  0  0  0  0  0  0  0  0  0
    9.5263    1.0000   -0.0000 C   0  0  0  0  0  0  0  0  0  0  0  0
   -0.8660    1.0000   -0.0000 O   0  0  0  0  0  0  0  0  0  0  0  0
   -1.7321   -0.5000   -0.0000 O   0  0  0  0  0  0  0  0  0  0  0  0
   -0.8660   -2.0000   -0.0000 C   0  0  0  0  0  0  0  0  0  0  0  0
    9.5263   -3.0000   -0.0000 C   0  0  0  0  0  0  0  0  0  0  0  0
   10.3923    1.5000   -0.0000 F   0  0  0  0  0  0  0  0  0  0  0  0
   -1.7321   -1.5000   -0.0000 C   0  0  0  0  0  0  0  0  0  0  0  0
   -0.8660   -3.0000   -0.0000 C   0  0  0  0  0  0  0  0  0  0  0  0
   10.3923   -3.5000   -0.0000 F   0  0  0  0  0  0  0  0  0  0  0  0
   -2.5981   -2.0000   -0.0000 C   0  0  0  0  0  0  0  0  0  0  0  0
   -1.7321   -3.5000   -0.0000 C   0  0  0  0  0  0  0  0  0  0  0  0
   -2.5981   -3.0000   -0.0000 C   0  0  0  0  0  0  0  0  0  0  0  0
  1  2  1  0  0  0  0
  1  3  1  0  0  0  0
  2  4  2  0  0  0  0
  2  5  1  0  0  0  0
  3  6  1  0  0  0  0
  4  7  1  0  0  0  0
  5  8  2  0  0  0  0
  6  9  1  6  0  0  0
  6 10  1  0  0  0  0
  7 11  2  0  0  0  0
  8 12  1  0  0  0  0
 10 13  1  0  0  0  0
 11 14  1  0  0  0  0
 12 15  2  0  0  0  0
 12 16  1  0  0  0  0
 13 17  1  0  0  0  0
 14 18  2  0  0  0  0
 14 19  1  0  0  0  0
 15 20  1  0  0  0  0
 16 21  2  0  0  0  0
 17 22  1  0  0  0  0
 17 23  2  0  0  0  0
 18 24  1  0  0  0  0
 19 25  2  0  0  0  0
 20 26  2  0  0  0  0
 22 27  2  0  0  0  0
 22 28  1  0  0  0  0
 23 29  1  0  0  0  0
 24 30  2  0  0  0  0
 26 31  1  0  0  0  0
 28 32  1  0  0  0  0
 29 33  2  0  0  0  0
 30 34  1  0  0  0  0
 32 35  2  0  0  0  0
 33 36  1  0  0  0  0
 35 37  1  0  0  0  0
  8 11  1  0  0  0  0
 21 26  1  0  0  0  0
 25 30  1  0  0  0  0
 29 32  1  0  0  0  0
 36 37  2  0  0  0  0
M  END
>  <S/N>
223

>  <Compound ID>
C_238

>  <PubChem CID>
132522825

>  <Isomeric SMILES>
C1=CC=C2C(=C1)C=C(C(=O)O2)OCC(CSC3=NC(=C(N=N3)C4=CC=C(C=C4)F)C5=CC=C(C=C5)F)O

>  <IC50 (�M)>
32

>  <pIC50>
4.49

$$$$
C_239
Actelion Java MolfileCreator 1.0

 37 41  0  0  0  0  0  0  0  0999 V2000
   10.3923   -1.5000   -0.0000 Br  0  0  0  0  0  0  0  0  0  0  0  0
    9.5263   -2.0000   -0.0000 C   0  0  0  0  0  0  0  0  0  0  0  0
    8.6603   -1.5000   -0.0000 C   0  0  0  0  0  0  0  0  0  0  0  0
    9.5263   -3.0000   -0.0000 C   0  0  0  0  0  0  0  0  0  0  0  0
    7.7942   -2.0000   -0.0000 C   0  0  0  0  0  0  0  0  0  0  0  0
    8.6603   -3.5000   -0.0000 C   0  0  0  0  0  0  0  0  0  0  0  0
    6.9282   -1.5000   -0.0000 C   0  0  0  0  0  0  0  0  0  0  0  0
    7.7942   -3.0000   -0.0000 C   0  0  0  0  0  0  0  0  0  0  0  0
    6.9282   -0.5000   -0.0000 N   0  0  0  0  0  0  0  0  0  0  0  0
    6.0622   -2.0000   -0.0000 C   0  0  0  0  0  0  0  0  0  0  0  0
    6.0622   -0.0000   -0.0000 N   0  0  0  0  0  0  0  0  0  0  0  0
    5.1962   -1.5000   -0.0000 N   0  0  0  0  0  0  0  0  0  0  0  0
    6.0622   -3.0000   -0.0000 C   0  0  0  0  0  0  0  0  0  0  0  0
    5.1962   -0.5000   -0.0000 C   0  0  0  0  0  0  0  0  0  0  0  0
    5.1962   -3.5000   -0.0000 C   0  0  0  0  0  0  0  0  0  0  0  0
    6.9282   -3.5000   -0.0000 C   0  0  0  0  0  0  0  0  0  0  0  0
    4.3301   -0.0000   -0.0000 S   0  0  0  0  0  0  0  0  0  0  0  0
    5.1962   -4.5000   -0.0000 C   0  0  0  0  0  0  0  0  0  0  0  0
    6.9282   -4.5000   -0.0000 C   0  0  0  0  0  0  0  0  0  0  0  0
    3.4641   -0.5000   -0.0000 C   0  0  0  0  0  0  0  0  0  0  0  0
    4.3301   -5.0000   -0.0000 Br  0  0  0  0  0  0  0  0  0  0  0  0
    6.0622   -5.0000   -0.0000 C   0  0  0  0  0  0  0  0  0  0  0  0
    2.5981   -0.0000   -0.0000 C   0  0  0  0  0  0  0  0  0  0  0  0
    2.5981    1.0000   -0.0000 O   0  0  0  0  0  0  0  0  0  0  0  0
    1.7321   -0.5000   -0.0000 C   0  0  0  0  0  0  0  0  0  0  0  0
    0.8660   -0.0000   -0.0000 O   0  0  0  0  0  0  0  0  0  0  0  0
    0.0000   -0.5000   -0.0000 C   0  0  0  0  0  0  0  0  0  0  0  0
   -0.8660    0.0000   -0.0000 C   0  0  0  0  0  0  0  0  0  0  0  0
   -0.0000   -1.5000   -0.0000 C   0  0  0  0  0  0  0  0  0  0  0  0
   -0.8660    1.0000   -0.0000 O   0  0  0  0  0  0  0  0  0  0  0  0
   -1.7321   -0.5000   -0.0000 O   0  0  0  0  0  0  0  0  0  0  0  0
   -0.8660   -2.0000   -0.0000 C   0  0  0  0  0  0  0  0  0  0  0  0
   -1.7321   -1.5000   -0.0000 C   0  0  0  0  0  0  0  0  0  0  0  0
   -0.8660   -3.0000   -0.0000 C   0  0  0  0  0  0  0  0  0  0  0  0
   -2.5981   -2.0000   -0.0000 C   0  0  0  0  0  0  0  0  0  0  0  0
   -1.7321   -3.5000   -0.0000 C   0  0  0  0  0  0  0  0  0  0  0  0
   -2.5981   -3.0000   -0.0000 C   0  0  0  0  0  0  0  0  0  0  0  0
  1  2  1  0  0  0  0
  2  3  2  0  0  0  0
  2  4  1  0  0  0  0
  3  5  1  0  0  0  0
  4  6  2  0  0  0  0
  5  7  1  0  0  0  0
  5  8  2  0  0  0  0
  7  9  2  0  0  0  0
  7 10  1  0  0  0  0
  9 11  1  0  0  0  0
 10 12  2  0  0  0  0
 10 13  1  0  0  0  0
 11 14  2  0  0  0  0
 13 15  2  0  0  0  0
 13 16  1  0  0  0  0
 14 17  1  0  0  0  0
 15 18  1  0  0  0  0
 16 19  2  0  0  0  0
 17 20  1  0  0  0  0
 18 21  1  0  0  0  0
 18 22  2  0  0  0  0
 20 23  1  0  0  0  0
 23 24  1  6  0  0  0
 23 25  1  0  0  0  0
 25 26  1  0  0  0  0
 26 27  1  0  0  0  0
 27 28  1  0  0  0  0
 27 29  2  0  0  0  0
 28 30  2  0  0  0  0
 28 31  1  0  0  0  0
 29 32  1  0  0  0  0
 31 33  1  0  0  0  0
 32 34  2  0  0  0  0
 33 35  2  0  0  0  0
 34 36  1  0  0  0  0
 35 37  1  0  0  0  0
  6  8  1  0  0  0  0
 12 14  1  0  0  0  0
 19 22  1  0  0  0  0
 32 33  1  0  0  0  0
 36 37  2  0  0  0  0
M  END
>  <S/N>
224

>  <Compound ID>
C_239

>  <PubChem CID>
132522826

>  <Isomeric SMILES>
C1=CC=C2C(=C1)C=C(C(=O)O2)OCC(CSC3=NC(=C(N=N3)C4=CC(=CC=C4)Br)C5=CC(=CC=C5)Br)O

>  <IC50 (�M)>
32

>  <pIC50>
4.49

$$$$
C_240
Actelion Java MolfileCreator 1.0

 31 34  0  0  1  0  0  0  0  0999 V2000
    4.2298   -5.7718   -0.0000 O   0  0  0  0  0  0  0  0  0  0  0  0
    3.3481   -4.5583   -0.0000 C   0  0  0  0  0  0  0  0  0  0  0  0
    3.8116   -3.1317   -0.0000 O   0  0  0  0  0  0  0  0  0  0  0  0
    1.8481   -4.5583   -0.0000 C   0  0  0  0  0  0  0  0  0  0  0  0
    2.5981   -2.2500   -0.0000 C   0  0  0  0  0  0  0  0  0  0  0  0
    1.3846   -3.1317   -0.0000 C   0  0  0  0  0  0  0  0  0  0  0  0
    0.9664   -5.7718   -0.0000 C   0  0  0  0  0  0  0  0  0  0  0  0
    1.2616   -1.5690   -0.0000 O   0  0  0  0  0  0  0  0  0  0  0  0
    2.5981   -0.7500   -0.0000 C   0  0  0  0  0  0  0  0  0  0  0  0
   -0.0420   -2.6682   -0.0000 C   0  0  0  0  0  0  0  0  0  0  0  0
    1.5765   -7.1421   -0.0000 C   0  0  0  0  0  0  0  0  0  0  0  0
    1.2990    0.0000   -0.0000 O   0  0  0  0  0  0  0  0  0  0  0  0
    3.8971    0.0000   -0.0000 O   0  0  0  0  0  0  0  0  0  0  0  0
   -0.3539   -1.2009   -0.0000 C   0  0  0  0  0  0  0  0  0  0  0  0
   -1.1568   -3.6719   -0.0000 C   0  0  0  0  0  0  0  0  0  0  0  0
    0.6948   -8.3556   -0.0000 C   0  0  0  0  0  0  0  0  0  0  0  0
    3.0683   -7.2989   -0.0000 C   0  0  0  0  0  0  0  0  0  0  0  0
    5.1962   -0.7500   -0.0000 C   0  0  0  0  0  0  0  0  0  0  0  0
   -1.7805   -0.7374   -0.0000 C   0  0  0  0  0  0  0  0  0  0  0  0
   -2.5833   -3.2083   -0.0000 C   0  0  0  0  0  0  0  0  0  0  0  0
    1.3049   -9.7260   -0.0000 C   0  0  0  0  0  0  0  0  0  0  0  0
    3.6784   -8.6692   -0.0000 C   0  0  0  0  0  0  0  0  0  0  0  0
   -2.8952   -1.7411   -0.0000 C   0  0  0  0  0  0  0  0  0  0  0  0
    2.7967   -9.8828   -0.0000 C   0  0  0  0  0  0  0  0  0  0  0  0
    0.4233  -10.9395   -0.0000 C   0  0  0  0  0  0  0  0  0  0  0  0
   -4.3218   -1.2776   -0.0000 O   0  0  0  0  0  0  0  0  0  0  0  0
    3.4068  -11.2531   -0.0000 O   0  0  0  0  0  0  0  0  0  0  0  0
    1.0334  -12.3098   -0.0000 C   0  0  0  0  0  0  0  0  0  0  0  0
    2.5251  -12.4666   -0.0000 C   0  0  0  0  0  0  0  0  0  0  0  0
    2.3683  -13.9584   -0.0000 C   0  0  0  0  0  0  0  0  0  0  0  0
    3.7387  -13.3482   -0.0000 C   0  0  0  0  0  0  0  0  0  0  0  0
  1  2  2  0  0  0  0
  2  3  1  0  0  0  0
  2  4  1  0  0  0  0
  3  5  1  0  0  0  0
  4  6  2  0  0  0  0
  4  7  1  0  0  0  0
  5  8  1  6  0  0  0
  5  9  1  0  0  0  0
  6 10  1  0  0  0  0
  7 11  1  0  0  0  0
  9 12  2  0  0  0  0
  9 13  1  0  0  0  0
 10 14  2  0  0  0  0
 10 15  1  0  0  0  0
 11 16  2  0  0  0  0
 11 17  1  0  0  0  0
 13 18  1  0  0  0  0
 14 19  1  0  0  0  0
 15 20  2  0  0  0  0
 16 21  1  0  0  0  0
 17 22  2  0  0  0  0
 19 23  2  0  0  0  0
 21 24  2  0  0  0  0
 21 25  1  0  0  0  0
 23 26  1  0  0  0  0
 24 27  1  0  0  0  0
 25 28  1  0  0  0  0
 27 29  1  0  0  0  0
 29 30  1  0  0  0  0
 29 31  1  0  0  0  0
  5  6  1  0  0  0  0
 20 23  1  0  0  0  0
 22 24  1  0  0  0  0
 28 29  1  0  0  0  0
M  END
>  <S/N>
225

>  <Compound ID>
C_240

>  <PubChem CID>
132577715

>  <Isomeric SMILES>
CC1(CCC2=C(O1)C=CC(=C2)CC3=C([C@](OC3=O)(C(=O)OC)O)C4=CC=C(C=C4)O)C

>  <IC50 (�M)>
10.3

>  <pIC50>
4.99

$$$$
C_241
Actelion Java MolfileCreator 1.0

 30 33  0  0  1  0  0  0  0  0999 V2000
    1.6402   -3.2455   -0.0000 O   0  0  0  0  0  0  0  0  0  0  0  0
    2.7549   -2.2418   -0.0000 C   0  0  0  0  0  0  0  0  0  0  0  0
    4.2221   -2.5537   -0.0000 O   0  0  0  0  0  0  0  0  0  0  0  0
    2.5981   -0.7500   -0.0000 C   0  0  0  0  0  0  0  0  0  0  0  0
    4.9721   -1.2546   -0.0000 C   0  0  0  0  0  0  0  0  0  0  0  0
    3.9684   -0.1399   -0.0000 C   0  0  0  0  0  0  0  0  0  0  0  0
    1.2990   -0.0000   -0.0000 C   0  0  0  0  0  0  0  0  0  0  0  0
    5.5096    0.1458   -0.0000 O   0  0  0  0  0  0  0  0  0  0  0  0
    6.4639   -1.0978   -0.0000 C   0  0  0  0  0  0  0  0  0  0  0  0
    4.2803    1.3273   -0.0000 C   0  0  0  0  0  0  0  0  0  0  0  0
    0.0000   -0.7500   -0.0000 C   0  0  0  0  0  0  0  0  0  0  0  0
    7.0740    0.2725   -0.0000 O   0  0  0  0  0  0  0  0  0  0  0  0
    7.3456   -2.3113   -0.0000 O   0  0  0  0  0  0  0  0  0  0  0  0
    5.7069    1.7909   -0.0000 C   0  0  0  0  0  0  0  0  0  0  0  0
    3.1655    2.3310   -0.0000 C   0  0  0  0  0  0  0  0  0  0  0  0
   -1.2990    0.0000   -0.0000 C   0  0  0  0  0  0  0  0  0  0  0  0
   -0.0000   -2.2500   -0.0000 C   0  0  0  0  0  0  0  0  0  0  0  0
    6.0187    3.2581   -0.0000 C   0  0  0  0  0  0  0  0  0  0  0  0
    3.4774    3.7982   -0.0000 C   0  0  0  0  0  0  0  0  0  0  0  0
   -2.5981   -0.7500   -0.0000 C   0  0  0  0  0  0  0  0  0  0  0  0
   -1.2990   -3.0000   -0.0000 C   0  0  0  0  0  0  0  0  0  0  0  0
    4.9040    4.2618   -0.0000 C   0  0  0  0  0  0  0  0  0  0  0  0
   -2.5981   -2.2500   -0.0000 C   0  0  0  0  0  0  0  0  0  0  0  0
   -3.8971    0.0000   -0.0000 C   0  0  0  0  0  0  0  0  0  0  0  0
    5.2159    5.7290   -0.0000 O   0  0  0  0  0  0  0  0  0  0  0  0
   -3.8971   -3.0000   -0.0000 O   0  0  0  0  0  0  0  0  0  0  0  0
   -5.1962   -0.7500   -0.0000 C   0  0  0  0  0  0  0  0  0  0  0  0
   -5.1962   -2.2500   -0.0000 C   0  0  0  0  0  0  0  0  0  0  0  0
   -6.6961   -2.2500   -0.0000 C   0  0  0  0  0  0  0  0  0  0  0  0
   -5.9461   -3.5490   -0.0000 C   0  0  0  0  0  0  0  0  0  0  0  0
  1  2  2  0  0  0  0
  2  3  1  0  0  0  0
  2  4  1  0  0  0  0
  3  5  1  0  0  0  0
  4  6  2  0  0  0  0
  4  7  1  0  0  0  0
  5  8  1  6  0  0  0
  5  9  1  0  0  0  0
  6 10  1  0  0  0  0
  7 11  1  0  0  0  0
  9 12  2  0  0  0  0
  9 13  1  0  0  0  0
 10 14  2  0  0  0  0
 10 15  1  0  0  0  0
 11 16  2  0  0  0  0
 11 17  1  0  0  0  0
 14 18  1  0  0  0  0
 15 19  2  0  0  0  0
 16 20  1  0  0  0  0
 17 21  2  0  0  0  0
 18 22  2  0  0  0  0
 20 23  2  0  0  0  0
 20 24  1  0  0  0  0
 22 25  1  0  0  0  0
 23 26  1  0  0  0  0
 24 27  1  0  0  0  0
 26 28  1  0  0  0  0
 28 29  1  0  0  0  0
 28 30  1  0  0  0  0
  5  6  1  0  0  0  0
 19 22  1  0  0  0  0
 21 23  1  0  0  0  0
 27 28  1  0  0  0  0
M  END
>  <S/N>
226

>  <Compound ID>
C_241

>  <PubChem CID>
132577716

>  <Isomeric SMILES>
CC1(CCC2=C(O1)C=CC(=C2)CC3=C([C@](OC3=O)(C(=O)O)O)C4=CC=C(C=C4)O)C

>  <IC50 (�M)>
7.63

>  <pIC50>
5.12

$$$$
C_242
Actelion Java MolfileCreator 1.0

 42 47  0  0  0  0  0  0  0  0999 V2000
   -6.1060   -0.5767   -0.0000 O   0  0  0  0  0  0  0  0  0  0  0  0
   -7.4063   -1.3275   -0.0000 C   0  0  0  0  0  0  0  0  0  0  0  0
   -8.7066   -0.5767   -0.0000 N   0  0  0  0  0  0  0  0  0  0  0  0
   -7.4063   -2.8290   -0.0000 C   0  0  0  0  0  0  0  0  0  0  0  0
   -8.7066    0.9248   -0.0000 C   0  0  0  0  0  0  0  0  0  0  0  0
   -6.1060   -3.5797   -0.0000 N   0  0  0  0  0  0  0  0  0  0  0  0
   -7.4063    1.6755   -0.0000 C   0  0  0  0  0  0  0  0  0  0  0  0
  -10.0069    1.6755   -0.0000 C   0  0  0  0  0  0  0  0  0  0  0  0
   -5.9490   -5.0730   -0.0000 N   0  0  0  0  0  0  0  0  0  0  0  0
   -4.7343   -2.9690   -0.0000 C   0  0  0  0  0  0  0  0  0  0  0  0
   -7.4063    3.1770   -0.0000 C   0  0  0  0  0  0  0  0  0  0  0  0
  -10.0069    3.1770   -0.0000 C   0  0  0  0  0  0  0  0  0  0  0  0
   -4.4846   -5.3617   -0.0000 N   0  0  0  0  0  0  0  0  0  0  0  0
   -3.7296   -4.0848   -0.0000 C   0  0  0  0  0  0  0  0  0  0  0  0
   -8.7066    3.9277   -0.0000 C   0  0  0  0  0  0  0  0  0  0  0  0
   -2.2363   -3.9279   -0.0000 C   0  0  0  0  0  0  0  0  0  0  0  0
   -8.7066    5.4292   -0.0000 C   0  0  0  0  0  0  0  0  0  0  0  0
   -1.3538   -5.1426   -0.0000 N   0  0  0  0  0  0  0  0  0  0  0  0
   -1.8178   -6.5706   -0.0000 C   0  0  0  0  0  0  0  0  0  0  0  0
    0.1477   -5.1426   -0.0000 C   0  0  0  0  0  0  0  0  0  0  0  0
   -0.6030   -7.4531   -0.0000 N   0  0  0  0  0  0  0  0  0  0  0  0
   -3.2458   -7.0346   -0.0000 C   0  0  0  0  0  0  0  0  0  0  0  0
    1.0303   -3.9279   -0.0000 C   0  0  0  0  0  0  0  0  0  0  0  0
    0.6117   -6.5706   -0.0000 C   0  0  0  0  0  0  0  0  0  0  0  0
   -3.5579   -8.5032   -0.0000 C   0  0  0  0  0  0  0  0  0  0  0  0
   -4.3530   -6.0767   -0.0000 C   0  0  0  0  0  0  0  0  0  0  0  0
    2.5235   -4.0848   -0.0000 C   0  0  0  0  0  0  0  0  0  0  0  0
    0.4195   -2.5562   -0.0000 C   0  0  0  0  0  0  0  0  0  0  0  0
    2.0397   -7.0346   -0.0000 C   0  0  0  0  0  0  0  0  0  0  0  0
   -2.4421   -9.5079   -0.0000 O   0  0  0  0  0  0  0  0  0  0  0  0
   -4.9859   -8.9672   -0.0000 C   0  0  0  0  0  0  0  0  0  0  0  0
   -5.7896   -6.4939   -0.0000 C   0  0  0  0  0  0  0  0  0  0  0  0
    3.4061   -2.8701   -0.0000 C   0  0  0  0  0  0  0  0  0  0  0  0
    1.3021   -1.3415   -0.0000 C   0  0  0  0  0  0  0  0  0  0  0  0
    2.3519   -8.5032   -0.0000 C   0  0  0  0  0  0  0  0  0  0  0  0
    3.1555   -6.0299   -0.0000 C   0  0  0  0  0  0  0  0  0  0  0  0
   -2.7543  -10.9766   -0.0000 C   0  0  0  0  0  0  0  0  0  0  0  0
   -6.1018   -7.9625   -0.0000 C   0  0  0  0  0  0  0  0  0  0  0  0
    2.7954   -1.4984   -0.0000 C   0  0  0  0  0  0  0  0  0  0  0  0
    3.7799   -8.9672   -0.0000 C   0  0  0  0  0  0  0  0  0  0  0  0
    4.5835   -6.4939   -0.0000 C   0  0  0  0  0  0  0  0  0  0  0  0
    4.8957   -7.9625   -0.0000 C   0  0  0  0  0  0  0  0  0  0  0  0
  1  2  2  0  0  0  0
  2  3  1  0  0  0  0
  2  4  1  0  0  0  0
  3  5  1  0  0  0  0
  4  6  1  0  0  0  0
  5  7  2  0  0  0  0
  5  8  1  0  0  0  0
  6  9  1  0  0  0  0
  6 10  1  0  0  0  0
  7 11  1  0  0  0  0
  8 12  2  0  0  0  0
  9 13  2  0  0  0  0
 10 14  2  0  0  0  0
 11 15  2  0  0  0  0
 14 16  1  0  0  0  0
 15 17  1  0  0  0  0
 16 18  1  0  0  0  0
 18 19  1  0  0  0  0
 18 20  1  0  0  0  0
 19 21  2  0  0  0  0
 19 22  1  0  0  0  0
 20 23  1  0  0  0  0
 20 24  2  0  0  0  0
 22 25  2  0  0  0  0
 22 26  1  0  0  0  0
 23 27  2  0  0  0  0
 23 28  1  0  0  0  0
 24 29  1  0  0  0  0
 25 30  1  0  0  0  0
 25 31  1  0  0  0  0
 26 32  2  0  0  0  0
 27 33  1  0  0  0  0
 28 34  2  0  0  0  0
 29 35  2  0  0  0  0
 29 36  1  0  0  0  0
 30 37  1  0  0  0  0
 31 38  2  0  0  0  0
 33 39  2  0  0  0  0
 35 40  1  0  0  0  0
 36 41  2  0  0  0  0
 40 42  2  0  0  0  0
 12 15  1  0  0  0  0
 13 14  1  0  0  0  0
 21 24  1  0  0  0  0
 32 38  1  0  0  0  0
 34 39  1  0  0  0  0
 41 42  1  0  0  0  0
M  END
>  <S/N>
227

>  <Compound ID>
C_242

>  <PubChem CID>
134131791

>  <Isomeric SMILES>
CC1=CC=C(C=C1)NC(=O)CN2C=C(N=N2)CN3C(=C(N=C3C4=CC=CC=C4OC)C5=CC=CC=C5)C6=CC=CC=C6

>  <IC50 (�M)>
15

>  <pIC50>
4.82

$$$$
C_243
Actelion Java MolfileCreator 1.0

 42 47  0  0  0  0  0  0  0  0999 V2000
   -4.0484    6.1987   -0.0000 Cl  0  0  0  0  0  0  0  0  0  0  0  0
   -5.1642    5.1940   -0.0000 C   0  0  0  0  0  0  0  0  0  0  0  0
   -4.8520    3.7253   -0.0000 C   0  0  0  0  0  0  0  0  0  0  0  0
   -6.5922    5.6579   -0.0000 C   0  0  0  0  0  0  0  0  0  0  0  0
   -3.4240    3.2613   -0.0000 N   0  0  0  0  0  0  0  0  0  0  0  0
   -5.9679    2.7206   -0.0000 C   0  0  0  0  0  0  0  0  0  0  0  0
   -7.7080    4.6533   -0.0000 C   0  0  0  0  0  0  0  0  0  0  0  0
   -3.1119    1.7926   -0.0000 C   0  0  0  0  0  0  0  0  0  0  0  0
   -7.3958    3.1846   -0.0000 C   0  0  0  0  0  0  0  0  0  0  0  0
   -9.1360    5.1172   -0.0000 Cl  0  0  0  0  0  0  0  0  0  0  0  0
   -4.2277    0.7879   -0.0000 O   0  0  0  0  0  0  0  0  0  0  0  0
   -1.6839    1.3286   -0.0000 C   0  0  0  0  0  0  0  0  0  0  0  0
   -1.3717   -0.1400   -0.0000 N   0  0  0  0  0  0  0  0  0  0  0  0
   -0.0000   -0.7507   -0.0000 N   0  0  0  0  0  0  0  0  0  0  0  0
   -2.3764   -1.2559   -0.0000 C   0  0  0  0  0  0  0  0  0  0  0  0
   -0.1779   -2.2327   -0.0000 N   0  0  0  0  0  0  0  0  0  0  0  0
   -1.6256   -2.5562   -0.0000 C   0  0  0  0  0  0  0  0  0  0  0  0
   -2.2363   -3.9279   -0.0000 C   0  0  0  0  0  0  0  0  0  0  0  0
   -1.3538   -5.1426   -0.0000 N   0  0  0  0  0  0  0  0  0  0  0  0
   -1.8178   -6.5706   -0.0000 C   0  0  0  0  0  0  0  0  0  0  0  0
    0.1477   -5.1426   -0.0000 C   0  0  0  0  0  0  0  0  0  0  0  0
   -0.6030   -7.4531   -0.0000 N   0  0  0  0  0  0  0  0  0  0  0  0
   -3.2458   -7.0346   -0.0000 C   0  0  0  0  0  0  0  0  0  0  0  0
    1.0303   -3.9279   -0.0000 C   0  0  0  0  0  0  0  0  0  0  0  0
    0.6117   -6.5706   -0.0000 C   0  0  0  0  0  0  0  0  0  0  0  0
   -4.3616   -6.0299   -0.0000 C   0  0  0  0  0  0  0  0  0  0  0  0
   -3.5579   -8.5032   -0.0000 C   0  0  0  0  0  0  0  0  0  0  0  0
    2.5235   -4.0848   -0.0000 C   0  0  0  0  0  0  0  0  0  0  0  0
    0.4614   -2.5788   -0.0000 C   0  0  0  0  0  0  0  0  0  0  0  0
    2.0397   -7.0346   -0.0000 C   0  0  0  0  0  0  0  0  0  0  0  0
   -5.7896   -6.4939   -0.0000 C   0  0  0  0  0  0  0  0  0  0  0  0
   -4.9859   -8.9672   -0.0000 C   0  0  0  0  0  0  0  0  0  0  0  0
    3.4061   -2.8701   -0.0000 C   0  0  0  0  0  0  0  0  0  0  0  0
    1.3021   -1.3415   -0.0000 C   0  0  0  0  0  0  0  0  0  0  0  0
    2.3519   -8.5032   -0.0000 C   0  0  0  0  0  0  0  0  0  0  0  0
    3.1555   -6.0299   -0.0000 C   0  0  0  0  0  0  0  0  0  0  0  0
   -6.1018   -7.9625   -0.0000 C   0  0  0  0  0  0  0  0  0  0  0  0
    2.7954   -1.4984   -0.0000 C   0  0  0  0  0  0  0  0  0  0  0  0
    3.7799   -8.9672   -0.0000 C   0  0  0  0  0  0  0  0  0  0  0  0
    4.5835   -6.4939   -0.0000 C   0  0  0  0  0  0  0  0  0  0  0  0
   -7.5298   -8.4265   -0.0000 F   0  0  0  0  0  0  0  0  0  0  0  0
    4.8957   -7.9625   -0.0000 C   0  0  0  0  0  0  0  0  0  0  0  0
  1  2  1  0  0  0  0
  2  3  2  0  0  0  0
  2  4  1  0  0  0  0
  3  5  1  0  0  0  0
  3  6  1  0  0  0  0
  4  7  2  0  0  0  0
  5  8  1  0  0  0  0
  6  9  2  0  0  0  0
  7 10  1  0  0  0  0
  8 11  2  0  0  0  0
  8 12  1  0  0  0  0
 12 13  1  0  0  0  0
 13 14  1  0  0  0  0
 13 15  1  0  0  0  0
 14 16  2  0  0  0  0
 15 17  2  0  0  0  0
 17 18  1  0  0  0  0
 18 19  1  0  0  0  0
 19 20  1  0  0  0  0
 19 21  1  0  0  0  0
 20 22  2  0  0  0  0
 20 23  1  0  0  0  0
 21 24  1  0  0  0  0
 21 25  2  0  0  0  0
 23 26  2  0  0  0  0
 23 27  1  0  0  0  0
 24 28  2  0  0  0  0
 24 29  1  0  0  0  0
 25 30  1  0  0  0  0
 26 31  1  0  0  0  0
 27 32  2  0  0  0  0
 28 33  1  0  0  0  0
 29 34  2  0  0  0  0
 30 35  2  0  0  0  0
 30 36  1  0  0  0  0
 31 37  2  0  0  0  0
 33 38  2  0  0  0  0
 35 39  1  0  0  0  0
 36 40  2  0  0  0  0
 37 41  1  0  0  0  0
 39 42  2  0  0  0  0
  7  9  1  0  0  0  0
 16 17  1  0  0  0  0
 22 25  1  0  0  0  0
 32 37  1  0  0  0  0
 34 38  1  0  0  0  0
 40 42  1  0  0  0  0
M  END
>  <S/N>
228

>  <Compound ID>
C_243

>  <PubChem CID>
134133547

>  <Isomeric SMILES>
C1=CC=C(C=C1)C2=C(N(C(=N2)C3=CC=C(C=C3)F)CC4=CN(N=N4)CC(=O)NC5=C(C=C(C=C5)Cl)Cl)C6=CC=CC=C6

>  <IC50 (�M)>
15

>  <pIC50>
4.82

$$$$
C_244
Actelion Java MolfileCreator 1.0

 42 47  0  0  0  0  0  0  0  0999 V2000
    4.5099    0.0302   -0.0000 Cl  0  0  0  0  0  0  0  0  0  0  0  0
    3.8992   -1.3415   -0.0000 C   0  0  0  0  0  0  0  0  0  0  0  0
    4.7818   -2.5562   -0.0000 C   0  0  0  0  0  0  0  0  0  0  0  0
    2.4059   -1.4984   -0.0000 C   0  0  0  0  0  0  0  0  0  0  0  0
    4.1710   -3.9279   -0.0000 C   0  0  0  0  0  0  0  0  0  0  0  0
    1.7952   -2.8701   -0.0000 C   0  0  0  0  0  0  0  0  0  0  0  0
    5.0536   -5.1426   -0.0000 C   0  0  0  0  0  0  0  0  0  0  0  0
    2.6778   -4.0848   -0.0000 C   0  0  0  0  0  0  0  0  0  0  0  0
    4.5896   -6.5706   -0.0000 N   0  0  0  0  0  0  0  0  0  0  0  0
    6.5551   -5.1426   -0.0000 N   0  0  0  0  0  0  0  0  0  0  0  0
    5.8043   -7.4531   -0.0000 C   0  0  0  0  0  0  0  0  0  0  0  0
    7.0191   -6.5706   -0.0000 C   0  0  0  0  0  0  0  0  0  0  0  0
    7.4376   -3.9279   -0.0000 C   0  0  0  0  0  0  0  0  0  0  0  0
    5.8043   -8.9546   -0.0000 C   0  0  0  0  0  0  0  0  0  0  0  0
    8.4471   -7.0346   -0.0000 C   0  0  0  0  0  0  0  0  0  0  0  0
    8.9309   -4.0848   -0.0000 C   0  0  0  0  0  0  0  0  0  0  0  0
    4.5040   -9.7054   -0.0000 C   0  0  0  0  0  0  0  0  0  0  0  0
    7.1047   -9.7054   -0.0000 C   0  0  0  0  0  0  0  0  0  0  0  0
    8.7592   -8.5032   -0.0000 C   0  0  0  0  0  0  0  0  0  0  0  0
    9.5543   -6.0767   -0.0000 C   0  0  0  0  0  0  0  0  0  0  0  0
    9.6860   -5.3617   -0.0000 N   0  0  0  0  0  0  0  0  0  0  0  0
    9.9356   -2.9690   -0.0000 C   0  0  0  0  0  0  0  0  0  0  0  0
    4.5040  -11.2069   -0.0000 C   0  0  0  0  0  0  0  0  0  0  0  0
    7.1047  -11.2069   -0.0000 C   0  0  0  0  0  0  0  0  0  0  0  0
   10.1872   -8.9672   -0.0000 C   0  0  0  0  0  0  0  0  0  0  0  0
   10.9909   -6.4939   -0.0000 C   0  0  0  0  0  0  0  0  0  0  0  0
   11.1503   -5.0730   -0.0000 N   0  0  0  0  0  0  0  0  0  0  0  0
   11.3073   -3.5797   -0.0000 N   0  0  0  0  0  0  0  0  0  0  0  0
    5.8043  -11.9576   -0.0000 C   0  0  0  0  0  0  0  0  0  0  0  0
   11.3031   -7.9625   -0.0000 C   0  0  0  0  0  0  0  0  0  0  0  0
   12.6076   -2.8290   -0.0000 C   0  0  0  0  0  0  0  0  0  0  0  0
   13.9079   -3.5797   -0.0000 C   0  0  0  0  0  0  0  0  0  0  0  0
   13.9079   -5.0812   -0.0000 O   0  0  0  0  0  0  0  0  0  0  0  0
   15.2082   -2.8290   -0.0000 N   0  0  0  0  0  0  0  0  0  0  0  0
   16.5086   -3.5797   -0.0000 C   0  0  0  0  0  0  0  0  0  0  0  0
   17.8089   -2.8290   -0.0000 C   0  0  0  0  0  0  0  0  0  0  0  0
   16.5086   -5.0812   -0.0000 C   0  0  0  0  0  0  0  0  0  0  0  0
   19.1092   -3.5797   -0.0000 C   0  0  0  0  0  0  0  0  0  0  0  0
   17.8089   -5.8319   -0.0000 C   0  0  0  0  0  0  0  0  0  0  0  0
   19.1092   -5.0812   -0.0000 C   0  0  0  0  0  0  0  0  0  0  0  0
   20.4095   -5.8319   -0.0000 O   0  0  0  0  0  0  0  0  0  0  0  0
   20.4095   -7.3334   -0.0000 C   0  0  0  0  0  0  0  0  0  0  0  0
  1  2  1  0  0  0  0
  2  3  2  0  0  0  0
  2  4  1  0  0  0  0
  3  5  1  0  0  0  0
  4  6  2  0  0  0  0
  5  7  1  0  0  0  0
  5  8  2  0  0  0  0
  7  9  2  0  0  0  0
  7 10  1  0  0  0  0
  9 11  1  0  0  0  0
 10 12  1  0  0  0  0
 10 13  1  0  0  0  0
 11 14  1  0  0  0  0
 12 15  1  0  0  0  0
 13 16  1  0  0  0  0
 14 17  2  0  0  0  0
 14 18  1  0  0  0  0
 15 19  2  0  0  0  0
 15 20  1  0  0  0  0
 16 21  1  0  0  0  0
 16 22  2  0  0  0  0
 17 23  1  0  0  0  0
 18 24  2  0  0  0  0
 19 25  1  0  0  0  0
 20 26  2  0  0  0  0
 21 27  2  0  0  0  0
 22 28  1  0  0  0  0
 23 29  2  0  0  0  0
 25 30  2  0  0  0  0
 28 31  1  0  0  0  0
 31 32  1  0  0  0  0
 32 33  2  0  0  0  0
 32 34  1  0  0  0  0
 34 35  1  0  0  0  0
 35 36  2  0  0  0  0
 35 37  1  0  0  0  0
 36 38  1  0  0  0  0
 37 39  2  0  0  0  0
 38 40  2  0  0  0  0
 40 41  1  0  0  0  0
 41 42  1  0  0  0  0
  6  8  1  0  0  0  0
 11 12  2  0  0  0  0
 24 29  1  0  0  0  0
 26 30  1  0  0  0  0
 27 28  1  0  0  0  0
 39 40  1  0  0  0  0
M  END
>  <S/N>
229

>  <Compound ID>
C_244

>  <PubChem CID>
134134001

>  <Isomeric SMILES>
COC1=CC=C(C=C1)NC(=O)CN2C=C(N=N2)CN3C(=C(N=C3C4=CC(=CC=C4)Cl)C5=CC=CC=C5)C6=CC=CC=C6

>  <IC50 (�M)>
15

>  <pIC50>
4.82

$$$$
C_245
Actelion Java MolfileCreator 1.0

 42 47  0  0  0  0  0  0  0  0999 V2000
    4.5099    0.0302   -0.0000 F   0  0  0  0  0  0  0  0  0  0  0  0
    3.8992   -1.3415   -0.0000 C   0  0  0  0  0  0  0  0  0  0  0  0
    4.7818   -2.5562   -0.0000 C   0  0  0  0  0  0  0  0  0  0  0  0
    2.4059   -1.4984   -0.0000 C   0  0  0  0  0  0  0  0  0  0  0  0
    4.1710   -3.9279   -0.0000 C   0  0  0  0  0  0  0  0  0  0  0  0
    1.7952   -2.8701   -0.0000 C   0  0  0  0  0  0  0  0  0  0  0  0
    5.0536   -5.1426   -0.0000 C   0  0  0  0  0  0  0  0  0  0  0  0
    2.6778   -4.0848   -0.0000 C   0  0  0  0  0  0  0  0  0  0  0  0
    4.5896   -6.5706   -0.0000 N   0  0  0  0  0  0  0  0  0  0  0  0
    6.5551   -5.1426   -0.0000 N   0  0  0  0  0  0  0  0  0  0  0  0
    5.8043   -7.4531   -0.0000 C   0  0  0  0  0  0  0  0  0  0  0  0
    7.0191   -6.5706   -0.0000 C   0  0  0  0  0  0  0  0  0  0  0  0
    7.4376   -3.9279   -0.0000 C   0  0  0  0  0  0  0  0  0  0  0  0
    5.8043   -8.9546   -0.0000 C   0  0  0  0  0  0  0  0  0  0  0  0
    8.4471   -7.0346   -0.0000 C   0  0  0  0  0  0  0  0  0  0  0  0
    8.9309   -4.0848   -0.0000 C   0  0  0  0  0  0  0  0  0  0  0  0
    4.5040   -9.7054   -0.0000 C   0  0  0  0  0  0  0  0  0  0  0  0
    7.1047   -9.7054   -0.0000 C   0  0  0  0  0  0  0  0  0  0  0  0
    8.7592   -8.5032   -0.0000 C   0  0  0  0  0  0  0  0  0  0  0  0
    9.5543   -6.0767   -0.0000 C   0  0  0  0  0  0  0  0  0  0  0  0
    9.6860   -5.3617   -0.0000 N   0  0  0  0  0  0  0  0  0  0  0  0
    9.9356   -2.9690   -0.0000 C   0  0  0  0  0  0  0  0  0  0  0  0
    4.5040  -11.2069   -0.0000 C   0  0  0  0  0  0  0  0  0  0  0  0
    7.1047  -11.2069   -0.0000 C   0  0  0  0  0  0  0  0  0  0  0  0
   10.1872   -8.9672   -0.0000 C   0  0  0  0  0  0  0  0  0  0  0  0
   10.9909   -6.4939   -0.0000 C   0  0  0  0  0  0  0  0  0  0  0  0
   11.1503   -5.0730   -0.0000 N   0  0  0  0  0  0  0  0  0  0  0  0
   11.3073   -3.5797   -0.0000 N   0  0  0  0  0  0  0  0  0  0  0  0
    5.8043  -11.9576   -0.0000 C   0  0  0  0  0  0  0  0  0  0  0  0
   11.3031   -7.9625   -0.0000 C   0  0  0  0  0  0  0  0  0  0  0  0
   12.6076   -2.8290   -0.0000 C   0  0  0  0  0  0  0  0  0  0  0  0
   13.9079   -3.5797   -0.0000 C   0  0  0  0  0  0  0  0  0  0  0  0
   13.9079   -5.0812   -0.0000 O   0  0  0  0  0  0  0  0  0  0  0  0
   15.2082   -2.8290   -0.0000 N   0  0  0  0  0  0  0  0  0  0  0  0
   16.5086   -3.5797   -0.0000 C   0  0  0  0  0  0  0  0  0  0  0  0
   17.8089   -2.8290   -0.0000 C   0  0  0  0  0  0  0  0  0  0  0  0
   16.5086   -5.0812   -0.0000 C   0  0  0  0  0  0  0  0  0  0  0  0
   19.1092   -3.5797   -0.0000 C   0  0  0  0  0  0  0  0  0  0  0  0
   17.8089   -1.3275   -0.0000 C   0  0  0  0  0  0  0  0  0  0  0  0
   17.8089   -5.8319   -0.0000 C   0  0  0  0  0  0  0  0  0  0  0  0
   19.1092   -5.0812   -0.0000 C   0  0  0  0  0  0  0  0  0  0  0  0
   20.4095   -5.8319   -0.0000 C   0  0  0  0  0  0  0  0  0  0  0  0
  1  2  1  0  0  0  0
  2  3  2  0  0  0  0
  2  4  1  0  0  0  0
  3  5  1  0  0  0  0
  4  6  2  0  0  0  0
  5  7  1  0  0  0  0
  5  8  2  0  0  0  0
  7  9  2  0  0  0  0
  7 10  1  0  0  0  0
  9 11  1  0  0  0  0
 10 12  1  0  0  0  0
 10 13  1  0  0  0  0
 11 14  1  0  0  0  0
 12 15  1  0  0  0  0
 13 16  1  0  0  0  0
 14 17  2  0  0  0  0
 14 18  1  0  0  0  0
 15 19  2  0  0  0  0
 15 20  1  0  0  0  0
 16 21  1  0  0  0  0
 16 22  2  0  0  0  0
 17 23  1  0  0  0  0
 18 24  2  0  0  0  0
 19 25  1  0  0  0  0
 20 26  2  0  0  0  0
 21 27  2  0  0  0  0
 22 28  1  0  0  0  0
 23 29  2  0  0  0  0
 25 30  2  0  0  0  0
 28 31  1  0  0  0  0
 31 32  1  0  0  0  0
 32 33  2  0  0  0  0
 32 34  1  0  0  0  0
 34 35  1  0  0  0  0
 35 36  2  0  0  0  0
 35 37  1  0  0  0  0
 36 38  1  0  0  0  0
 36 39  1  0  0  0  0
 37 40  2  0  0  0  0
 38 41  2  0  0  0  0
 41 42  1  0  0  0  0
  6  8  1  0  0  0  0
 11 12  2  0  0  0  0
 24 29  1  0  0  0  0
 26 30  1  0  0  0  0
 27 28  1  0  0  0  0
 40 41  1  0  0  0  0
M  END
>  <S/N>
230

>  <Compound ID>
C_245

>  <PubChem CID>
134134009

>  <Isomeric SMILES>
CC1=CC(=C(C=C1)NC(=O)CN2C=C(N=N2)CN3C(=C(N=C3C4=CC(=CC=C4)F)C5=CC=CC=C5)C6=CC=CC=C6)C

>  <IC50 (�M)>
15

>  <pIC50>
4.82

$$$$
C_246
Actelion Java MolfileCreator 1.0

 46 51  0  0  0  0  0  0  0  0999 V2000
    2.1339    1.0879   -0.0000 O   0  0  0  0  0  0  0  0  0  0  0  0
    1.5233   -0.2837   -0.0000 C   0  0  0  0  0  0  0  0  0  0  0  0
    0.0301   -0.4406   -0.0000 O   0  0  0  0  0  0  0  0  0  0  0  0
    2.4058   -1.4983   -0.0000 C   0  0  0  0  0  0  0  0  0  0  0  0
   -0.5805   -1.8122   -0.0000 C   0  0  0  0  0  0  0  0  0  0  0  0
    1.7951   -2.8699   -0.0000 C   0  0  0  0  0  0  0  0  0  0  0  0
    3.8989   -1.3413   -0.0000 C   0  0  0  0  0  0  0  0  0  0  0  0
    2.6776   -4.0845   -0.0000 C   0  0  0  0  0  0  0  0  0  0  0  0
    4.7814   -2.5560   -0.0000 C   0  0  0  0  0  0  0  0  0  0  0  0
    4.1707   -3.9276   -0.0000 C   0  0  0  0  0  0  0  0  0  0  0  0
    5.0532   -5.1422   -0.0000 C   0  0  0  0  0  0  0  0  0  0  0  0
    4.5893   -6.5701   -0.0000 N   0  0  0  0  0  0  0  0  0  0  0  0
    6.5546   -5.1422   -0.0000 N   0  0  0  0  0  0  0  0  0  0  0  0
    5.8039   -7.4526   -0.0000 C   0  0  0  0  0  0  0  0  0  0  0  0
    7.0185   -6.5701   -0.0000 C   0  0  0  0  0  0  0  0  0  0  0  0
    7.4371   -3.9276   -0.0000 C   0  0  0  0  0  0  0  0  0  0  0  0
    5.8039   -8.9539   -0.0000 C   0  0  0  0  0  0  0  0  0  0  0  0
    8.4464   -7.0340   -0.0000 C   0  0  0  0  0  0  0  0  0  0  0  0
    8.9302   -4.0845   -0.0000 C   0  0  0  0  0  0  0  0  0  0  0  0
    4.5037   -9.7046   -0.0000 C   0  0  0  0  0  0  0  0  0  0  0  0
    7.1041   -9.7046   -0.0000 C   0  0  0  0  0  0  0  0  0  0  0  0
    8.7586   -8.5026   -0.0000 C   0  0  0  0  0  0  0  0  0  0  0  0
    9.5535   -6.0762   -0.0000 C   0  0  0  0  0  0  0  0  0  0  0  0
    9.6852   -5.3613   -0.0000 N   0  0  0  0  0  0  0  0  0  0  0  0
    9.9348   -2.9688   -0.0000 C   0  0  0  0  0  0  0  0  0  0  0  0
    4.5037  -11.2060   -0.0000 C   0  0  0  0  0  0  0  0  0  0  0  0
    7.1041  -11.2060   -0.0000 C   0  0  0  0  0  0  0  0  0  0  0  0
   10.1865   -8.9665   -0.0000 C   0  0  0  0  0  0  0  0  0  0  0  0
   10.9900   -6.4934   -0.0000 C   0  0  0  0  0  0  0  0  0  0  0  0
   11.1495   -5.0726   -0.0000 N   0  0  0  0  0  0  0  0  0  0  0  0
   11.3064   -3.5794   -0.0000 N   0  0  0  0  0  0  0  0  0  0  0  0
    5.8039  -11.9567   -0.0000 C   0  0  0  0  0  0  0  0  0  0  0  0
   11.3022   -7.9619   -0.0000 C   0  0  0  0  0  0  0  0  0  0  0  0
   12.6066   -2.8287   -0.0000 C   0  0  0  0  0  0  0  0  0  0  0  0
   13.9068   -3.5794   -0.0000 C   0  0  0  0  0  0  0  0  0  0  0  0
   13.9068   -5.0808   -0.0000 O   0  0  0  0  0  0  0  0  0  0  0  0
   15.2071   -2.8287   -0.0000 N   0  0  0  0  0  0  0  0  0  0  0  0
   16.5073   -3.5794   -0.0000 C   0  0  0  0  0  0  0  0  0  0  0  0
   17.8075   -2.8287   -0.0000 C   0  0  0  0  0  0  0  0  0  0  0  0
   16.5073   -5.0808   -0.0000 C   0  0  0  0  0  0  0  0  0  0  0  0
   19.1077   -3.5794   -0.0000 C   0  0  0  0  0  0  0  0  0  0  0  0
   17.8075   -5.8315   -0.0000 C   0  0  0  0  0  0  0  0  0  0  0  0
   19.1077   -5.0808   -0.0000 C   0  0  0  0  0  0  0  0  0  0  0  0
   20.4080   -5.8315   -0.0000 O   0  0  0  0  0  0  0  0  0  0  0  0
   21.7082   -5.0808   -0.0000 C   0  0  0  0  0  0  0  0  0  0  0  0
   23.0084   -5.8315   -0.0000 C   0  0  0  0  0  0  0  0  0  0  0  0
  1  2  2  0  0  0  0
  2  3  1  0  0  0  0
  2  4  1  0  0  0  0
  3  5  1  0  0  0  0
  4  6  2  0  0  0  0
  4  7  1  0  0  0  0
  6  8  1  0  0  0  0
  7  9  2  0  0  0  0
  8 10  2  0  0  0  0
 10 11  1  0  0  0  0
 11 12  2  0  0  0  0
 11 13  1  0  0  0  0
 12 14  1  0  0  0  0
 13 15  1  0  0  0  0
 13 16  1  0  0  0  0
 14 17  1  0  0  0  0
 15 18  1  0  0  0  0
 16 19  1  0  0  0  0
 17 20  2  0  0  0  0
 17 21  1  0  0  0  0
 18 22  2  0  0  0  0
 18 23  1  0  0  0  0
 19 24  1  0  0  0  0
 19 25  2  0  0  0  0
 20 26  1  0  0  0  0
 21 27  2  0  0  0  0
 22 28  1  0  0  0  0
 23 29  2  0  0  0  0
 24 30  2  0  0  0  0
 25 31  1  0  0  0  0
 26 32  2  0  0  0  0
 28 33  2  0  0  0  0
 31 34  1  0  0  0  0
 34 35  1  0  0  0  0
 35 36  2  0  0  0  0
 35 37  1  0  0  0  0
 37 38  1  0  0  0  0
 38 39  2  0  0  0  0
 38 40  1  0  0  0  0
 39 41  1  0  0  0  0
 40 42  2  0  0  0  0
 41 43  2  0  0  0  0
 43 44  1  0  0  0  0
 44 45  1  0  0  0  0
 45 46  1  0  0  0  0
  9 10  1  0  0  0  0
 14 15  2  0  0  0  0
 27 32  1  0  0  0  0
 29 33  1  0  0  0  0
 30 31  1  0  0  0  0
 42 43  1  0  0  0  0
M  END
>  <S/N>
231

>  <Compound ID>
C_246

>  <PubChem CID>
134134112

>  <Isomeric SMILES>
CCOC1=CC=C(C=C1)NC(=O)CN2C=C(N=N2)CN3C(=C(N=C3C4=CC=C(C=C4)C(=O)OC)C5=CC=CC=C5)C6=CC=CC=C6

>  <IC50 (�M)>
15

>  <pIC50>
4.82

$$$$
C_247
Actelion Java MolfileCreator 1.0

 43 48  0  0  0  0  0  0  0  0999 V2000
    4.5098    0.0302   -0.0000 Cl  0  0  0  0  0  0  0  0  0  0  0  0
    3.8991   -1.3414   -0.0000 C   0  0  0  0  0  0  0  0  0  0  0  0
    4.7817   -2.5561   -0.0000 C   0  0  0  0  0  0  0  0  0  0  0  0
    2.4059   -1.4984   -0.0000 C   0  0  0  0  0  0  0  0  0  0  0  0
    4.1710   -3.9278   -0.0000 C   0  0  0  0  0  0  0  0  0  0  0  0
    1.7952   -2.8700   -0.0000 C   0  0  0  0  0  0  0  0  0  0  0  0
    5.0535   -5.1425   -0.0000 C   0  0  0  0  0  0  0  0  0  0  0  0
    2.6777   -4.0847   -0.0000 C   0  0  0  0  0  0  0  0  0  0  0  0
    4.5895   -6.5705   -0.0000 N   0  0  0  0  0  0  0  0  0  0  0  0
    6.5549   -5.1425   -0.0000 N   0  0  0  0  0  0  0  0  0  0  0  0
    5.8042   -7.4530   -0.0000 C   0  0  0  0  0  0  0  0  0  0  0  0
    7.0189   -6.5705   -0.0000 C   0  0  0  0  0  0  0  0  0  0  0  0
    7.4375   -3.9278   -0.0000 C   0  0  0  0  0  0  0  0  0  0  0  0
    5.8042   -8.9544   -0.0000 C   0  0  0  0  0  0  0  0  0  0  0  0
    8.4469   -7.0344   -0.0000 C   0  0  0  0  0  0  0  0  0  0  0  0
    8.9307   -4.0847   -0.0000 C   0  0  0  0  0  0  0  0  0  0  0  0
    4.5039   -9.7052   -0.0000 C   0  0  0  0  0  0  0  0  0  0  0  0
    7.1045   -9.7052   -0.0000 C   0  0  0  0  0  0  0  0  0  0  0  0
    8.7591   -8.5031   -0.0000 C   0  0  0  0  0  0  0  0  0  0  0  0
    9.5541   -6.0765   -0.0000 C   0  0  0  0  0  0  0  0  0  0  0  0
    9.6858   -5.3616   -0.0000 N   0  0  0  0  0  0  0  0  0  0  0  0
    9.9354   -2.9689   -0.0000 C   0  0  0  0  0  0  0  0  0  0  0  0
    4.5039  -11.2066   -0.0000 C   0  0  0  0  0  0  0  0  0  0  0  0
    7.1045  -11.2066   -0.0000 C   0  0  0  0  0  0  0  0  0  0  0  0
   10.1870   -8.9670   -0.0000 C   0  0  0  0  0  0  0  0  0  0  0  0
   10.9907   -6.4937   -0.0000 C   0  0  0  0  0  0  0  0  0  0  0  0
   11.1501   -5.0729   -0.0000 N   0  0  0  0  0  0  0  0  0  0  0  0
   11.3070   -3.5796   -0.0000 N   0  0  0  0  0  0  0  0  0  0  0  0
    5.8042  -11.9574   -0.0000 C   0  0  0  0  0  0  0  0  0  0  0  0
   11.3028   -7.9624   -0.0000 C   0  0  0  0  0  0  0  0  0  0  0  0
   12.6073   -2.8289   -0.0000 C   0  0  0  0  0  0  0  0  0  0  0  0
   13.9076   -3.5796   -0.0000 C   0  0  0  0  0  0  0  0  0  0  0  0
   13.9076   -5.0811   -0.0000 O   0  0  0  0  0  0  0  0  0  0  0  0
   15.2079   -2.8289   -0.0000 N   0  0  0  0  0  0  0  0  0  0  0  0
   16.5082   -3.5796   -0.0000 C   0  0  0  0  0  0  0  0  0  0  0  0
   17.8085   -2.8289   -0.0000 C   0  0  0  0  0  0  0  0  0  0  0  0
   16.5082   -5.0811   -0.0000 C   0  0  0  0  0  0  0  0  0  0  0  0
   19.1088   -3.5796   -0.0000 C   0  0  0  0  0  0  0  0  0  0  0  0
   17.8085   -5.8318   -0.0000 C   0  0  0  0  0  0  0  0  0  0  0  0
   19.1088   -5.0811   -0.0000 C   0  0  0  0  0  0  0  0  0  0  0  0
   20.4091   -5.8318   -0.0000 O   0  0  0  0  0  0  0  0  0  0  0  0
   21.7094   -5.0811   -0.0000 C   0  0  0  0  0  0  0  0  0  0  0  0
   23.0097   -5.8318   -0.0000 C   0  0  0  0  0  0  0  0  0  0  0  0
  1  2  1  0  0  0  0
  2  3  2  0  0  0  0
  2  4  1  0  0  0  0
  3  5  1  0  0  0  0
  4  6  2  0  0  0  0
  5  7  1  0  0  0  0
  5  8  2  0  0  0  0
  7  9  2  0  0  0  0
  7 10  1  0  0  0  0
  9 11  1  0  0  0  0
 10 12  1  0  0  0  0
 10 13  1  0  0  0  0
 11 14  1  0  0  0  0
 12 15  1  0  0  0  0
 13 16  1  0  0  0  0
 14 17  2  0  0  0  0
 14 18  1  0  0  0  0
 15 19  2  0  0  0  0
 15 20  1  0  0  0  0
 16 21  1  0  0  0  0
 16 22  2  0  0  0  0
 17 23  1  0  0  0  0
 18 24  2  0  0  0  0
 19 25  1  0  0  0  0
 20 26  2  0  0  0  0
 21 27  2  0  0  0  0
 22 28  1  0  0  0  0
 23 29  2  0  0  0  0
 25 30  2  0  0  0  0
 28 31  1  0  0  0  0
 31 32  1  0  0  0  0
 32 33  2  0  0  0  0
 32 34  1  0  0  0  0
 34 35  1  0  0  0  0
 35 36  2  0  0  0  0
 35 37  1  0  0  0  0
 36 38  1  0  0  0  0
 37 39  2  0  0  0  0
 38 40  2  0  0  0  0
 40 41  1  0  0  0  0
 41 42  1  0  0  0  0
 42 43  1  0  0  0  0
  6  8  1  0  0  0  0
 11 12  2  0  0  0  0
 24 29  1  0  0  0  0
 26 30  1  0  0  0  0
 27 28  1  0  0  0  0
 39 40  1  0  0  0  0
M  END
>  <S/N>
232

>  <Compound ID>
C_247

>  <PubChem CID>
134134969

>  <Isomeric SMILES>
CCOC1=CC=C(C=C1)NC(=O)CN2C=C(N=N2)CN3C(=C(N=C3C4=CC(=CC=C4)Cl)C5=CC=CC=C5)C6=CC=CC=C6

>  <IC50 (�M)>
15

>  <pIC50>
4.82

$$$$
C_248
Actelion Java MolfileCreator 1.0

 43 48  0  0  0  0  0  0  0  0999 V2000
    4.5098    0.0302   -0.0000 Br  0  0  0  0  0  0  0  0  0  0  0  0
    3.8991   -1.3414   -0.0000 C   0  0  0  0  0  0  0  0  0  0  0  0
    4.7817   -2.5561   -0.0000 C   0  0  0  0  0  0  0  0  0  0  0  0
    2.4059   -1.4984   -0.0000 C   0  0  0  0  0  0  0  0  0  0  0  0
    4.1710   -3.9278   -0.0000 C   0  0  0  0  0  0  0  0  0  0  0  0
    1.7952   -2.8700   -0.0000 C   0  0  0  0  0  0  0  0  0  0  0  0
    5.0535   -5.1425   -0.0000 C   0  0  0  0  0  0  0  0  0  0  0  0
    2.6777   -4.0847   -0.0000 C   0  0  0  0  0  0  0  0  0  0  0  0
    4.5895   -6.5705   -0.0000 N   0  0  0  0  0  0  0  0  0  0  0  0
    6.5549   -5.1425   -0.0000 N   0  0  0  0  0  0  0  0  0  0  0  0
    5.8042   -7.4530   -0.0000 C   0  0  0  0  0  0  0  0  0  0  0  0
    7.0189   -6.5705   -0.0000 C   0  0  0  0  0  0  0  0  0  0  0  0
    7.4375   -3.9278   -0.0000 C   0  0  0  0  0  0  0  0  0  0  0  0
    5.8042   -8.9544   -0.0000 C   0  0  0  0  0  0  0  0  0  0  0  0
    8.4469   -7.0344   -0.0000 C   0  0  0  0  0  0  0  0  0  0  0  0
    8.9307   -4.0847   -0.0000 C   0  0  0  0  0  0  0  0  0  0  0  0
    4.5039   -9.7052   -0.0000 C   0  0  0  0  0  0  0  0  0  0  0  0
    7.1045   -9.7052   -0.0000 C   0  0  0  0  0  0  0  0  0  0  0  0
    8.7591   -8.5031   -0.0000 C   0  0  0  0  0  0  0  0  0  0  0  0
    9.5541   -6.0765   -0.0000 C   0  0  0  0  0  0  0  0  0  0  0  0
    9.6858   -5.3616   -0.0000 N   0  0  0  0  0  0  0  0  0  0  0  0
    9.9354   -2.9689   -0.0000 C   0  0  0  0  0  0  0  0  0  0  0  0
    4.5039  -11.2066   -0.0000 C   0  0  0  0  0  0  0  0  0  0  0  0
    7.1045  -11.2066   -0.0000 C   0  0  0  0  0  0  0  0  0  0  0  0
   10.1870   -8.9670   -0.0000 C   0  0  0  0  0  0  0  0  0  0  0  0
   10.9907   -6.4937   -0.0000 C   0  0  0  0  0  0  0  0  0  0  0  0
   11.1501   -5.0729   -0.0000 N   0  0  0  0  0  0  0  0  0  0  0  0
   11.3070   -3.5796   -0.0000 N   0  0  0  0  0  0  0  0  0  0  0  0
    5.8042  -11.9574   -0.0000 C   0  0  0  0  0  0  0  0  0  0  0  0
   11.3028   -7.9624   -0.0000 C   0  0  0  0  0  0  0  0  0  0  0  0
   12.6073   -2.8289   -0.0000 C   0  0  0  0  0  0  0  0  0  0  0  0
   13.9076   -3.5796   -0.0000 C   0  0  0  0  0  0  0  0  0  0  0  0
   13.9076   -5.0811   -0.0000 O   0  0  0  0  0  0  0  0  0  0  0  0
   15.2079   -2.8289   -0.0000 N   0  0  0  0  0  0  0  0  0  0  0  0
   16.5082   -3.5796   -0.0000 C   0  0  0  0  0  0  0  0  0  0  0  0
   17.8085   -2.8289   -0.0000 C   0  0  0  0  0  0  0  0  0  0  0  0
   16.5082   -5.0811   -0.0000 C   0  0  0  0  0  0  0  0  0  0  0  0
   17.8085   -1.3274   -0.0000 O   0  0  0  0  0  0  0  0  0  0  0  0
   19.1088   -3.5796   -0.0000 C   0  0  0  0  0  0  0  0  0  0  0  0
   17.8085   -5.8318   -0.0000 C   0  0  0  0  0  0  0  0  0  0  0  0
   16.5082   -0.5767   -0.0000 C   0  0  0  0  0  0  0  0  0  0  0  0
   19.1088   -5.0811   -0.0000 C   0  0  0  0  0  0  0  0  0  0  0  0
   16.5082    0.9247   -0.0000 C   0  0  0  0  0  0  0  0  0  0  0  0
  1  2  1  0  0  0  0
  2  3  2  0  0  0  0
  2  4  1  0  0  0  0
  3  5  1  0  0  0  0
  4  6  2  0  0  0  0
  5  7  1  0  0  0  0
  5  8  2  0  0  0  0
  7  9  2  0  0  0  0
  7 10  1  0  0  0  0
  9 11  1  0  0  0  0
 10 12  1  0  0  0  0
 10 13  1  0  0  0  0
 11 14  1  0  0  0  0
 12 15  1  0  0  0  0
 13 16  1  0  0  0  0
 14 17  2  0  0  0  0
 14 18  1  0  0  0  0
 15 19  2  0  0  0  0
 15 20  1  0  0  0  0
 16 21  1  0  0  0  0
 16 22  2  0  0  0  0
 17 23  1  0  0  0  0
 18 24  2  0  0  0  0
 19 25  1  0  0  0  0
 20 26  2  0  0  0  0
 21 27  2  0  0  0  0
 22 28  1  0  0  0  0
 23 29  2  0  0  0  0
 25 30  2  0  0  0  0
 28 31  1  0  0  0  0
 31 32  1  0  0  0  0
 32 33  2  0  0  0  0
 32 34  1  0  0  0  0
 34 35  1  0  0  0  0
 35 36  2  0  0  0  0
 35 37  1  0  0  0  0
 36 38  1  0  0  0  0
 36 39  1  0  0  0  0
 37 40  2  0  0  0  0
 38 41  1  0  0  0  0
 39 42  2  0  0  0  0
 41 43  1  0  0  0  0
  6  8  1  0  0  0  0
 11 12  2  0  0  0  0
 24 29  1  0  0  0  0
 26 30  1  0  0  0  0
 27 28  1  0  0  0  0
 40 42  1  0  0  0  0
M  END
>  <S/N>
233

>  <Compound ID>
C_248

>  <PubChem CID>
134137273

>  <Isomeric SMILES>
CCOC1=CC=CC=C1NC(=O)CN2C=C(N=N2)CN3C(=C(N=C3C4=CC(=CC=C4)Br)C5=CC=CC=C5)C6=CC=CC=C6

>  <IC50 (�M)>
15

>  <pIC50>
4.82

$$$$
C_249
Actelion Java MolfileCreator 1.0

 40 45  0  0  0  0  0  0  0  0999 V2000
    2.6669   -3.9240   -0.0000 S   0  0  0  0  0  0  0  0  0  0  0  0
    4.1669   -3.9240   -0.0000 C   0  0  0  0  0  0  0  0  0  0  0  0
    2.2034   -2.4974   -0.0000 C   0  0  0  0  0  0  0  0  0  0  0  0
    5.0486   -5.1375   -0.0000 C   0  0  0  0  0  0  0  0  0  0  0  0
    4.6304   -2.4974   -0.0000 C   0  0  0  0  0  0  0  0  0  0  0  0
    3.4169   -1.6157   -0.0000 C   0  0  0  0  0  0  0  0  0  0  0  0
    4.5851   -6.5641   -0.0000 N   0  0  0  0  0  0  0  0  0  0  0  0
    6.5486   -5.1375   -0.0000 N   0  0  0  0  0  0  0  0  0  0  0  0
    5.7986   -7.4458   -0.0000 C   0  0  0  0  0  0  0  0  0  0  0  0
    7.0121   -6.5641   -0.0000 C   0  0  0  0  0  0  0  0  0  0  0  0
    7.4303   -3.9240   -0.0000 C   0  0  0  0  0  0  0  0  0  0  0  0
    5.7986   -8.9458   -0.0000 C   0  0  0  0  0  0  0  0  0  0  0  0
    8.4387   -7.0276   -0.0000 C   0  0  0  0  0  0  0  0  0  0  0  0
    6.8202   -2.5537   -0.0000 C   0  0  0  0  0  0  0  0  0  0  0  0
    4.4996   -9.6958   -0.0000 C   0  0  0  0  0  0  0  0  0  0  0  0
    7.0976   -9.6958   -0.0000 C   0  0  0  0  0  0  0  0  0  0  0  0
    8.7506   -8.4948   -0.0000 C   0  0  0  0  0  0  0  0  0  0  0  0
    9.5534   -6.0239   -0.0000 C   0  0  0  0  0  0  0  0  0  0  0  0
    5.3529   -2.2418   -0.0000 N   0  0  0  0  0  0  0  0  0  0  0  0
    7.5702   -1.2546   -0.0000 C   0  0  0  0  0  0  0  0  0  0  0  0
    4.4996  -11.1958   -0.0000 C   0  0  0  0  0  0  0  0  0  0  0  0
    7.0976  -11.1958   -0.0000 C   0  0  0  0  0  0  0  0  0  0  0  0
   10.1772   -8.9584   -0.0000 C   0  0  0  0  0  0  0  0  0  0  0  0
   10.9800   -6.4874   -0.0000 C   0  0  0  0  0  0  0  0  0  0  0  0
    5.1962   -0.7500   -0.0000 N   0  0  0  0  0  0  0  0  0  0  0  0
    6.5665   -0.1399   -0.0000 N   0  0  0  0  0  0  0  0  0  0  0  0
    5.7986  -11.9458   -0.0000 C   0  0  0  0  0  0  0  0  0  0  0  0
   11.2919   -7.9547   -0.0000 C   0  0  0  0  0  0  0  0  0  0  0  0
    6.8783    1.3273   -0.0000 C   0  0  0  0  0  0  0  0  0  0  0  0
    5.7636    2.3310   -0.0000 C   0  0  0  0  0  0  0  0  0  0  0  0
    4.3370    1.8675   -0.0000 O   0  0  0  0  0  0  0  0  0  0  0  0
    6.0755    3.7982   -0.0000 N   0  0  0  0  0  0  0  0  0  0  0  0
    4.9608    4.8019   -0.0000 C   0  0  0  0  0  0  0  0  0  0  0  0
    5.2726    6.2692   -0.0000 C   0  0  0  0  0  0  0  0  0  0  0  0
    3.5342    4.3384   -0.0000 C   0  0  0  0  0  0  0  0  0  0  0  0
    4.1579    7.2729   -0.0000 C   0  0  0  0  0  0  0  0  0  0  0  0
    2.4195    5.3421   -0.0000 C   0  0  0  0  0  0  0  0  0  0  0  0
    2.7313    6.8093   -0.0000 C   0  0  0  0  0  0  0  0  0  0  0  0
    1.6166    7.8130   -0.0000 O   0  0  0  0  0  0  0  0  0  0  0  0
    0.1900    7.3495   -0.0000 C   0  0  0  0  0  0  0  0  0  0  0  0
  1  2  1  0  0  0  0
  1  3  1  0  0  0  0
  2  4  1  0  0  0  0
  2  5  2  0  0  0  0
  3  6  2  0  0  0  0
  4  7  2  0  0  0  0
  4  8  1  0  0  0  0
  7  9  1  0  0  0  0
  8 10  1  0  0  0  0
  8 11  1  0  0  0  0
  9 12  1  0  0  0  0
 10 13  1  0  0  0  0
 11 14  1  0  0  0  0
 12 15  2  0  0  0  0
 12 16  1  0  0  0  0
 13 17  2  0  0  0  0
 13 18  1  0  0  0  0
 14 19  1  0  0  0  0
 14 20  2  0  0  0  0
 15 21  1  0  0  0  0
 16 22  2  0  0  0  0
 17 23  1  0  0  0  0
 18 24  2  0  0  0  0
 19 25  2  0  0  0  0
 20 26  1  0  0  0  0
 21 27  2  0  0  0  0
 23 28  2  0  0  0  0
 26 29  1  0  0  0  0
 29 30  1  0  0  0  0
 30 31  2  0  0  0  0
 30 32  1  0  0  0  0
 32 33  1  0  0  0  0
 33 34  2  0  0  0  0
 33 35  1  0  0  0  0
 34 36  1  0  0  0  0
 35 37  2  0  0  0  0
 36 38  2  0  0  0  0
 38 39  1  0  0  0  0
 39 40  1  0  0  0  0
  5  6  1  0  0  0  0
  9 10  2  0  0  0  0
 22 27  1  0  0  0  0
 24 28  1  0  0  0  0
 25 26  1  0  0  0  0
 37 38  1  0  0  0  0
M  END
>  <S/N>
234

>  <Compound ID>
C_249

>  <PubChem CID>
134139205

>  <Isomeric SMILES>
COC1=CC=C(C=C1)NC(=O)CN2C=C(N=N2)CN3C(=C(N=C3C4=CC=CS4)C5=CC=CC=C5)C6=CC=CC=C6

>  <IC50 (�M)>
15

>  <pIC50>
4.82

$$$$
C_250
Actelion Java MolfileCreator 1.0

 43 48  0  0  0  0  0  0  0  0999 V2000
    6.2749   -2.3992   -0.0000 F   0  0  0  0  0  0  0  0  0  0  0  0
    4.7817   -2.5561   -0.0000 C   0  0  0  0  0  0  0  0  0  0  0  0
    4.1710   -3.9278   -0.0000 C   0  0  0  0  0  0  0  0  0  0  0  0
    3.8991   -1.3414   -0.0000 C   0  0  0  0  0  0  0  0  0  0  0  0
    5.0535   -5.1425   -0.0000 C   0  0  0  0  0  0  0  0  0  0  0  0
    2.6777   -4.0847   -0.0000 C   0  0  0  0  0  0  0  0  0  0  0  0
    2.4059   -1.4984   -0.0000 C   0  0  0  0  0  0  0  0  0  0  0  0
    4.5895   -6.5705   -0.0000 N   0  0  0  0  0  0  0  0  0  0  0  0
    6.5549   -5.1425   -0.0000 N   0  0  0  0  0  0  0  0  0  0  0  0
    1.7952   -2.8700   -0.0000 C   0  0  0  0  0  0  0  0  0  0  0  0
    5.8042   -7.4530   -0.0000 C   0  0  0  0  0  0  0  0  0  0  0  0
    7.0189   -6.5705   -0.0000 C   0  0  0  0  0  0  0  0  0  0  0  0
    7.4375   -3.9278   -0.0000 C   0  0  0  0  0  0  0  0  0  0  0  0
    5.8042   -8.9544   -0.0000 C   0  0  0  0  0  0  0  0  0  0  0  0
    8.4469   -7.0344   -0.0000 C   0  0  0  0  0  0  0  0  0  0  0  0
    8.9307   -4.0847   -0.0000 C   0  0  0  0  0  0  0  0  0  0  0  0
    4.5039   -9.7052   -0.0000 C   0  0  0  0  0  0  0  0  0  0  0  0
    7.1045   -9.7052   -0.0000 C   0  0  0  0  0  0  0  0  0  0  0  0
    8.7591   -8.5031   -0.0000 C   0  0  0  0  0  0  0  0  0  0  0  0
    9.5541   -6.0765   -0.0000 C   0  0  0  0  0  0  0  0  0  0  0  0
    9.6858   -5.3616   -0.0000 N   0  0  0  0  0  0  0  0  0  0  0  0
    9.9354   -2.9689   -0.0000 C   0  0  0  0  0  0  0  0  0  0  0  0
    4.5039  -11.2066   -0.0000 C   0  0  0  0  0  0  0  0  0  0  0  0
    7.1045  -11.2066   -0.0000 C   0  0  0  0  0  0  0  0  0  0  0  0
   10.1870   -8.9670   -0.0000 C   0  0  0  0  0  0  0  0  0  0  0  0
   10.9907   -6.4937   -0.0000 C   0  0  0  0  0  0  0  0  0  0  0  0
   11.1501   -5.0729   -0.0000 N   0  0  0  0  0  0  0  0  0  0  0  0
   11.3070   -3.5796   -0.0000 N   0  0  0  0  0  0  0  0  0  0  0  0
    5.8042  -11.9574   -0.0000 C   0  0  0  0  0  0  0  0  0  0  0  0
   11.3028   -7.9624   -0.0000 C   0  0  0  0  0  0  0  0  0  0  0  0
   12.6073   -2.8289   -0.0000 C   0  0  0  0  0  0  0  0  0  0  0  0
   13.9076   -3.5796   -0.0000 C   0  0  0  0  0  0  0  0  0  0  0  0
   13.9076   -5.0811   -0.0000 O   0  0  0  0  0  0  0  0  0  0  0  0
   15.2079   -2.8289   -0.0000 N   0  0  0  0  0  0  0  0  0  0  0  0
   16.5082   -3.5796   -0.0000 C   0  0  0  0  0  0  0  0  0  0  0  0
   17.8085   -2.8289   -0.0000 C   0  0  0  0  0  0  0  0  0  0  0  0
   16.5082   -5.0811   -0.0000 C   0  0  0  0  0  0  0  0  0  0  0  0
   17.8085   -1.3274   -0.0000 O   0  0  0  0  0  0  0  0  0  0  0  0
   19.1088   -3.5796   -0.0000 C   0  0  0  0  0  0  0  0  0  0  0  0
   17.8085   -5.8318   -0.0000 C   0  0  0  0  0  0  0  0  0  0  0  0
   16.5082   -0.5767   -0.0000 C   0  0  0  0  0  0  0  0  0  0  0  0
   19.1088   -5.0811   -0.0000 C   0  0  0  0  0  0  0  0  0  0  0  0
   16.5082    0.9247   -0.0000 C   0  0  0  0  0  0  0  0  0  0  0  0
  1  2  1  0  0  0  0
  2  3  2  0  0  0  0
  2  4  1  0  0  0  0
  3  5  1  0  0  0  0
  3  6  1  0  0  0  0
  4  7  2  0  0  0  0
  5  8  2  0  0  0  0
  5  9  1  0  0  0  0
  6 10  2  0  0  0  0
  8 11  1  0  0  0  0
  9 12  1  0  0  0  0
  9 13  1  0  0  0  0
 11 14  1  0  0  0  0
 12 15  1  0  0  0  0
 13 16  1  0  0  0  0
 14 17  2  0  0  0  0
 14 18  1  0  0  0  0
 15 19  2  0  0  0  0
 15 20  1  0  0  0  0
 16 21  1  0  0  0  0
 16 22  2  0  0  0  0
 17 23  1  0  0  0  0
 18 24  2  0  0  0  0
 19 25  1  0  0  0  0
 20 26  2  0  0  0  0
 21 27  2  0  0  0  0
 22 28  1  0  0  0  0
 23 29  2  0  0  0  0
 25 30  2  0  0  0  0
 28 31  1  0  0  0  0
 31 32  1  0  0  0  0
 32 33  2  0  0  0  0
 32 34  1  0  0  0  0
 34 35  1  0  0  0  0
 35 36  2  0  0  0  0
 35 37  1  0  0  0  0
 36 38  1  0  0  0  0
 36 39  1  0  0  0  0
 37 40  2  0  0  0  0
 38 41  1  0  0  0  0
 39 42  2  0  0  0  0
 41 43  1  0  0  0  0
  7 10  1  0  0  0  0
 11 12  2  0  0  0  0
 24 29  1  0  0  0  0
 26 30  1  0  0  0  0
 27 28  1  0  0  0  0
 40 42  1  0  0  0  0
M  END
>  <S/N>
235

>  <Compound ID>
C_250

>  <PubChem CID>
134140317

>  <Isomeric SMILES>
CCOC1=CC=CC=C1NC(=O)CN2C=C(N=N2)CN3C(=C(N=C3C4=CC=CC=C4F)C5=CC=CC=C5)C6=CC=CC=C6

>  <IC50 (�M)>
15

>  <pIC50>
4.82

$$$$
C_251
Actelion Java MolfileCreator 1.0

 41 46  0  0  0  0  0  0  0  0999 V2000
    1.5234   -0.2837   -0.0000 Br  0  0  0  0  0  0  0  0  0  0  0  0
    2.4060   -1.4984   -0.0000 C   0  0  0  0  0  0  0  0  0  0  0  0
    1.7953   -2.8701   -0.0000 C   0  0  0  0  0  0  0  0  0  0  0  0
    3.8993   -1.3415   -0.0000 C   0  0  0  0  0  0  0  0  0  0  0  0
    2.6778   -4.0849   -0.0000 C   0  0  0  0  0  0  0  0  0  0  0  0
    4.7819   -2.5562   -0.0000 C   0  0  0  0  0  0  0  0  0  0  0  0
    4.1711   -3.9279   -0.0000 C   0  0  0  0  0  0  0  0  0  0  0  0
    5.0537   -5.1427   -0.0000 C   0  0  0  0  0  0  0  0  0  0  0  0
    4.5897   -6.5707   -0.0000 N   0  0  0  0  0  0  0  0  0  0  0  0
    6.5552   -5.1427   -0.0000 N   0  0  0  0  0  0  0  0  0  0  0  0
    5.8045   -7.4533   -0.0000 C   0  0  0  0  0  0  0  0  0  0  0  0
    7.0192   -6.5707   -0.0000 C   0  0  0  0  0  0  0  0  0  0  0  0
    7.4378   -3.9279   -0.0000 C   0  0  0  0  0  0  0  0  0  0  0  0
    5.8045   -8.9548   -0.0000 C   0  0  0  0  0  0  0  0  0  0  0  0
    8.4473   -7.0347   -0.0000 C   0  0  0  0  0  0  0  0  0  0  0  0
    8.9311   -4.0849   -0.0000 C   0  0  0  0  0  0  0  0  0  0  0  0
    4.5041   -9.7056   -0.0000 C   0  0  0  0  0  0  0  0  0  0  0  0
    7.1048   -9.7056   -0.0000 C   0  0  0  0  0  0  0  0  0  0  0  0
    8.7594   -8.5034   -0.0000 C   0  0  0  0  0  0  0  0  0  0  0  0
    9.5545   -6.0768   -0.0000 C   0  0  0  0  0  0  0  0  0  0  0  0
    9.6862   -5.3619   -0.0000 N   0  0  0  0  0  0  0  0  0  0  0  0
    9.9358   -2.9690   -0.0000 C   0  0  0  0  0  0  0  0  0  0  0  0
    4.5041  -11.2071   -0.0000 C   0  0  0  0  0  0  0  0  0  0  0  0
    7.1048  -11.2071   -0.0000 C   0  0  0  0  0  0  0  0  0  0  0  0
   10.1875   -8.9674   -0.0000 C   0  0  0  0  0  0  0  0  0  0  0  0
   10.9911   -6.4940   -0.0000 C   0  0  0  0  0  0  0  0  0  0  0  0
   11.1506   -5.0731   -0.0000 N   0  0  0  0  0  0  0  0  0  0  0  0
   11.3075   -3.5798   -0.0000 N   0  0  0  0  0  0  0  0  0  0  0  0
    5.8045  -11.9579   -0.0000 C   0  0  0  0  0  0  0  0  0  0  0  0
   11.3033   -7.9627   -0.0000 C   0  0  0  0  0  0  0  0  0  0  0  0
   12.6079   -2.8290   -0.0000 C   0  0  0  0  0  0  0  0  0  0  0  0
   13.9082   -3.5798   -0.0000 C   0  0  0  0  0  0  0  0  0  0  0  0
   13.9082   -5.0813   -0.0000 O   0  0  0  0  0  0  0  0  0  0  0  0
   15.2086   -2.8290   -0.0000 N   0  0  0  0  0  0  0  0  0  0  0  0
   16.5089   -3.5798   -0.0000 C   0  0  0  0  0  0  0  0  0  0  0  0
   17.8093   -2.8290   -0.0000 C   0  0  0  0  0  0  0  0  0  0  0  0
   16.5089   -5.0813   -0.0000 C   0  0  0  0  0  0  0  0  0  0  0  0
   19.1096   -3.5798   -0.0000 C   0  0  0  0  0  0  0  0  0  0  0  0
   17.8093   -5.8321   -0.0000 C   0  0  0  0  0  0  0  0  0  0  0  0
   19.1096   -5.0813   -0.0000 C   0  0  0  0  0  0  0  0  0  0  0  0
   20.4100   -5.8321   -0.0000 F   0  0  0  0  0  0  0  0  0  0  0  0
  1  2  1  0  0  0  0
  2  3  2  0  0  0  0
  2  4  1  0  0  0  0
  3  5  1  0  0  0  0
  4  6  2  0  0  0  0
  5  7  2  0  0  0  0
  7  8  1  0  0  0  0
  8  9  2  0  0  0  0
  8 10  1  0  0  0  0
  9 11  1  0  0  0  0
 10 12  1  0  0  0  0
 10 13  1  0  0  0  0
 11 14  1  0  0  0  0
 12 15  1  0  0  0  0
 13 16  1  0  0  0  0
 14 17  2  0  0  0  0
 14 18  1  0  0  0  0
 15 19  2  0  0  0  0
 15 20  1  0  0  0  0
 16 21  1  0  0  0  0
 16 22  2  0  0  0  0
 17 23  1  0  0  0  0
 18 24  2  0  0  0  0
 19 25  1  0  0  0  0
 20 26  2  0  0  0  0
 21 27  2  0  0  0  0
 22 28  1  0  0  0  0
 23 29  2  0  0  0  0
 25 30  2  0  0  0  0
 28 31  1  0  0  0  0
 31 32  1  0  0  0  0
 32 33  2  0  0  0  0
 32 34  1  0  0  0  0
 34 35  1  0  0  0  0
 35 36  2  0  0  0  0
 35 37  1  0  0  0  0
 36 38  1  0  0  0  0
 37 39  2  0  0  0  0
 38 40  2  0  0  0  0
 40 41  1  0  0  0  0
  6  7  1  0  0  0  0
 11 12  2  0  0  0  0
 24 29  1  0  0  0  0
 26 30  1  0  0  0  0
 27 28  1  0  0  0  0
 39 40  1  0  0  0  0
M  END
>  <S/N>
236

>  <Compound ID>
C_251

>  <PubChem CID>
134140665

>  <Isomeric SMILES>
C1=CC=C(C=C1)C2=C(N(C(=N2)C3=CC=C(C=C3)Br)CC4=CN(N=N4)CC(=O)NC5=CC=C(C=C5)F)C6=CC=CC=C6

>  <IC50 (�M)>
15

>  <pIC50>
4.82

$$$$
C_252
Actelion Java MolfileCreator 1.0

 41 46  0  0  0  0  0  0  0  0999 V2000
    4.5100    0.0302   -0.0000 F   0  0  0  0  0  0  0  0  0  0  0  0
    3.8993   -1.3415   -0.0000 C   0  0  0  0  0  0  0  0  0  0  0  0
    4.7819   -2.5562   -0.0000 C   0  0  0  0  0  0  0  0  0  0  0  0
    2.4060   -1.4984   -0.0000 C   0  0  0  0  0  0  0  0  0  0  0  0
    4.1711   -3.9279   -0.0000 C   0  0  0  0  0  0  0  0  0  0  0  0
    1.7953   -2.8701   -0.0000 C   0  0  0  0  0  0  0  0  0  0  0  0
    5.0537   -5.1427   -0.0000 C   0  0  0  0  0  0  0  0  0  0  0  0
    2.6778   -4.0849   -0.0000 C   0  0  0  0  0  0  0  0  0  0  0  0
    4.5897   -6.5707   -0.0000 N   0  0  0  0  0  0  0  0  0  0  0  0
    6.5552   -5.1427   -0.0000 N   0  0  0  0  0  0  0  0  0  0  0  0
    5.8045   -7.4533   -0.0000 C   0  0  0  0  0  0  0  0  0  0  0  0
    7.0192   -6.5707   -0.0000 C   0  0  0  0  0  0  0  0  0  0  0  0
    7.4378   -3.9279   -0.0000 C   0  0  0  0  0  0  0  0  0  0  0  0
    5.8045   -8.9548   -0.0000 C   0  0  0  0  0  0  0  0  0  0  0  0
    8.4473   -7.0347   -0.0000 C   0  0  0  0  0  0  0  0  0  0  0  0
    8.9311   -4.0849   -0.0000 C   0  0  0  0  0  0  0  0  0  0  0  0
    4.5041   -9.7056   -0.0000 C   0  0  0  0  0  0  0  0  0  0  0  0
    7.1048   -9.7056   -0.0000 C   0  0  0  0  0  0  0  0  0  0  0  0
    8.7594   -8.5034   -0.0000 C   0  0  0  0  0  0  0  0  0  0  0  0
    9.5545   -6.0768   -0.0000 C   0  0  0  0  0  0  0  0  0  0  0  0
    9.6862   -5.3619   -0.0000 N   0  0  0  0  0  0  0  0  0  0  0  0
    9.9358   -2.9690   -0.0000 C   0  0  0  0  0  0  0  0  0  0  0  0
    4.5041  -11.2071   -0.0000 C   0  0  0  0  0  0  0  0  0  0  0  0
    7.1048  -11.2071   -0.0000 C   0  0  0  0  0  0  0  0  0  0  0  0
   10.1875   -8.9674   -0.0000 C   0  0  0  0  0  0  0  0  0  0  0  0
   10.9911   -6.4940   -0.0000 C   0  0  0  0  0  0  0  0  0  0  0  0
   11.1506   -5.0731   -0.0000 N   0  0  0  0  0  0  0  0  0  0  0  0
   11.3075   -3.5798   -0.0000 N   0  0  0  0  0  0  0  0  0  0  0  0
    5.8045  -11.9579   -0.0000 C   0  0  0  0  0  0  0  0  0  0  0  0
   11.3033   -7.9627   -0.0000 C   0  0  0  0  0  0  0  0  0  0  0  0
   12.6079   -2.8290   -0.0000 C   0  0  0  0  0  0  0  0  0  0  0  0
   13.9082   -3.5798   -0.0000 C   0  0  0  0  0  0  0  0  0  0  0  0
   13.9082   -5.0813   -0.0000 O   0  0  0  0  0  0  0  0  0  0  0  0
   15.2086   -2.8290   -0.0000 N   0  0  0  0  0  0  0  0  0  0  0  0
   16.5089   -3.5798   -0.0000 C   0  0  0  0  0  0  0  0  0  0  0  0
   17.8093   -2.8290   -0.0000 C   0  0  0  0  0  0  0  0  0  0  0  0
   16.5089   -5.0813   -0.0000 C   0  0  0  0  0  0  0  0  0  0  0  0
   19.1096   -3.5798   -0.0000 C   0  0  0  0  0  0  0  0  0  0  0  0
   17.8093   -1.3275   -0.0000 C   0  0  0  0  0  0  0  0  0  0  0  0
   17.8093   -5.8321   -0.0000 C   0  0  0  0  0  0  0  0  0  0  0  0
   19.1096   -5.0813   -0.0000 C   0  0  0  0  0  0  0  0  0  0  0  0
  1  2  1  0  0  0  0
  2  3  2  0  0  0  0
  2  4  1  0  0  0  0
  3  5  1  0  0  0  0
  4  6  2  0  0  0  0
  5  7  1  0  0  0  0
  5  8  2  0  0  0  0
  7  9  2  0  0  0  0
  7 10  1  0  0  0  0
  9 11  1  0  0  0  0
 10 12  1  0  0  0  0
 10 13  1  0  0  0  0
 11 14  1  0  0  0  0
 12 15  1  0  0  0  0
 13 16  1  0  0  0  0
 14 17  2  0  0  0  0
 14 18  1  0  0  0  0
 15 19  2  0  0  0  0
 15 20  1  0  0  0  0
 16 21  1  0  0  0  0
 16 22  2  0  0  0  0
 17 23  1  0  0  0  0
 18 24  2  0  0  0  0
 19 25  1  0  0  0  0
 20 26  2  0  0  0  0
 21 27  2  0  0  0  0
 22 28  1  0  0  0  0
 23 29  2  0  0  0  0
 25 30  2  0  0  0  0
 28 31  1  0  0  0  0
 31 32  1  0  0  0  0
 32 33  2  0  0  0  0
 32 34  1  0  0  0  0
 34 35  1  0  0  0  0
 35 36  2  0  0  0  0
 35 37  1  0  0  0  0
 36 38  1  0  0  0  0
 36 39  1  0  0  0  0
 37 40  2  0  0  0  0
 38 41  2  0  0  0  0
  6  8  1  0  0  0  0
 11 12  2  0  0  0  0
 24 29  1  0  0  0  0
 26 30  1  0  0  0  0
 27 28  1  0  0  0  0
 40 41  1  0  0  0  0
M  END
>  <S/N>
237

>  <Compound ID>
C_252

>  <PubChem CID>
134148325

>  <Isomeric SMILES>
CC1=CC=CC=C1NC(=O)CN2C=C(N=N2)CN3C(=C(N=C3C4=CC(=CC=C4)F)C5=CC=CC=C5)C6=CC=CC=C6

>  <IC50 (�M)>
15

>  <pIC50>
4.82

$$$$
C_253
Actelion Java MolfileCreator 1.0

 41 46  0  0  0  0  0  0  0  0999 V2000
    1.5234   -0.2837   -0.0000 Br  0  0  0  0  0  0  0  0  0  0  0  0
    2.4060   -1.4984   -0.0000 C   0  0  0  0  0  0  0  0  0  0  0  0
    1.7953   -2.8701   -0.0000 C   0  0  0  0  0  0  0  0  0  0  0  0
    3.8993   -1.3415   -0.0000 C   0  0  0  0  0  0  0  0  0  0  0  0
    2.6778   -4.0849   -0.0000 C   0  0  0  0  0  0  0  0  0  0  0  0
    4.7819   -2.5562   -0.0000 C   0  0  0  0  0  0  0  0  0  0  0  0
    4.1711   -3.9279   -0.0000 C   0  0  0  0  0  0  0  0  0  0  0  0
    5.0537   -5.1427   -0.0000 C   0  0  0  0  0  0  0  0  0  0  0  0
    4.5897   -6.5707   -0.0000 N   0  0  0  0  0  0  0  0  0  0  0  0
    6.5552   -5.1427   -0.0000 N   0  0  0  0  0  0  0  0  0  0  0  0
    5.8045   -7.4533   -0.0000 C   0  0  0  0  0  0  0  0  0  0  0  0
    7.0192   -6.5707   -0.0000 C   0  0  0  0  0  0  0  0  0  0  0  0
    7.4378   -3.9279   -0.0000 C   0  0  0  0  0  0  0  0  0  0  0  0
    5.8045   -8.9548   -0.0000 C   0  0  0  0  0  0  0  0  0  0  0  0
    8.4473   -7.0347   -0.0000 C   0  0  0  0  0  0  0  0  0  0  0  0
    8.9311   -4.0849   -0.0000 C   0  0  0  0  0  0  0  0  0  0  0  0
    4.5041   -9.7056   -0.0000 C   0  0  0  0  0  0  0  0  0  0  0  0
    7.1048   -9.7056   -0.0000 C   0  0  0  0  0  0  0  0  0  0  0  0
    8.7594   -8.5034   -0.0000 C   0  0  0  0  0  0  0  0  0  0  0  0
    9.5545   -6.0768   -0.0000 C   0  0  0  0  0  0  0  0  0  0  0  0
    9.6862   -5.3619   -0.0000 N   0  0  0  0  0  0  0  0  0  0  0  0
    9.9358   -2.9690   -0.0000 C   0  0  0  0  0  0  0  0  0  0  0  0
    4.5041  -11.2071   -0.0000 C   0  0  0  0  0  0  0  0  0  0  0  0
    7.1048  -11.2071   -0.0000 C   0  0  0  0  0  0  0  0  0  0  0  0
   10.1875   -8.9674   -0.0000 C   0  0  0  0  0  0  0  0  0  0  0  0
   10.9911   -6.4940   -0.0000 C   0  0  0  0  0  0  0  0  0  0  0  0
   11.1506   -5.0731   -0.0000 N   0  0  0  0  0  0  0  0  0  0  0  0
   11.3075   -3.5798   -0.0000 N   0  0  0  0  0  0  0  0  0  0  0  0
    5.8045  -11.9579   -0.0000 C   0  0  0  0  0  0  0  0  0  0  0  0
   11.3033   -7.9627   -0.0000 C   0  0  0  0  0  0  0  0  0  0  0  0
   12.6079   -2.8290   -0.0000 C   0  0  0  0  0  0  0  0  0  0  0  0
   13.9082   -3.5798   -0.0000 C   0  0  0  0  0  0  0  0  0  0  0  0
   13.9082   -5.0813   -0.0000 O   0  0  0  0  0  0  0  0  0  0  0  0
   15.2086   -2.8290   -0.0000 N   0  0  0  0  0  0  0  0  0  0  0  0
   16.5089   -3.5798   -0.0000 C   0  0  0  0  0  0  0  0  0  0  0  0
   17.8093   -2.8290   -0.0000 C   0  0  0  0  0  0  0  0  0  0  0  0
   16.5089   -5.0813   -0.0000 C   0  0  0  0  0  0  0  0  0  0  0  0
   19.1096   -3.5798   -0.0000 C   0  0  0  0  0  0  0  0  0  0  0  0
   17.8093   -1.3275   -0.0000 C   0  0  0  0  0  0  0  0  0  0  0  0
   17.8093   -5.8321   -0.0000 C   0  0  0  0  0  0  0  0  0  0  0  0
   19.1096   -5.0813   -0.0000 C   0  0  0  0  0  0  0  0  0  0  0  0
  1  2  1  0  0  0  0
  2  3  2  0  0  0  0
  2  4  1  0  0  0  0
  3  5  1  0  0  0  0
  4  6  2  0  0  0  0
  5  7  2  0  0  0  0
  7  8  1  0  0  0  0
  8  9  2  0  0  0  0
  8 10  1  0  0  0  0
  9 11  1  0  0  0  0
 10 12  1  0  0  0  0
 10 13  1  0  0  0  0
 11 14  1  0  0  0  0
 12 15  1  0  0  0  0
 13 16  1  0  0  0  0
 14 17  2  0  0  0  0
 14 18  1  0  0  0  0
 15 19  2  0  0  0  0
 15 20  1  0  0  0  0
 16 21  1  0  0  0  0
 16 22  2  0  0  0  0
 17 23  1  0  0  0  0
 18 24  2  0  0  0  0
 19 25  1  0  0  0  0
 20 26  2  0  0  0  0
 21 27  2  0  0  0  0
 22 28  1  0  0  0  0
 23 29  2  0  0  0  0
 25 30  2  0  0  0  0
 28 31  1  0  0  0  0
 31 32  1  0  0  0  0
 32 33  2  0  0  0  0
 32 34  1  0  0  0  0
 34 35  1  0  0  0  0
 35 36  2  0  0  0  0
 35 37  1  0  0  0  0
 36 38  1  0  0  0  0
 36 39  1  0  0  0  0
 37 40  2  0  0  0  0
 38 41  2  0  0  0  0
  6  7  1  0  0  0  0
 11 12  2  0  0  0  0
 24 29  1  0  0  0  0
 26 30  1  0  0  0  0
 27 28  1  0  0  0  0
 40 41  1  0  0  0  0
M  END
>  <S/N>
238

>  <Compound ID>
C_253

>  <PubChem CID>
134149940

>  <Isomeric SMILES>
CC1=CC=CC=C1NC(=O)CN2C=C(N=N2)CN3C(=C(N=C3C4=CC=C(C=C4)Br)C5=CC=CC=C5)C6=CC=CC=C6

>  <IC50 (�M)>
15

>  <pIC50>
4.82

$$$$
C_254
Actelion Java MolfileCreator 1.0

 45 50  0  0  0  0  0  0  0  0999 V2000
  -12.6077   -1.3275   -0.0000 Cl  0  0  0  0  0  0  0  0  0  0  0  0
  -12.6077   -2.8290   -0.0000 C   0  0  0  0  0  0  0  0  0  0  0  0
  -11.3074   -3.5797   -0.0000 C   0  0  0  0  0  0  0  0  0  0  0  0
  -13.9081   -3.5797   -0.0000 C   0  0  0  0  0  0  0  0  0  0  0  0
  -10.0070   -2.8290   -0.0000 N   0  0  0  0  0  0  0  0  0  0  0  0
  -11.3074   -5.0812   -0.0000 C   0  0  0  0  0  0  0  0  0  0  0  0
  -13.9081   -5.0812   -0.0000 C   0  0  0  0  0  0  0  0  0  0  0  0
   -8.7067   -3.5797   -0.0000 C   0  0  0  0  0  0  0  0  0  0  0  0
  -12.6077   -5.8320   -0.0000 C   0  0  0  0  0  0  0  0  0  0  0  0
  -15.2084   -5.8320   -0.0000 Cl  0  0  0  0  0  0  0  0  0  0  0  0
   -8.7067   -5.0812   -0.0000 O   0  0  0  0  0  0  0  0  0  0  0  0
   -7.4064   -2.8290   -0.0000 C   0  0  0  0  0  0  0  0  0  0  0  0
   -6.1060   -3.5797   -0.0000 N   0  0  0  0  0  0  0  0  0  0  0  0
   -5.9491   -5.0730   -0.0000 N   0  0  0  0  0  0  0  0  0  0  0  0
   -4.7343   -2.9690   -0.0000 C   0  0  0  0  0  0  0  0  0  0  0  0
   -4.4890   -5.3384   -0.0000 N   0  0  0  0  0  0  0  0  0  0  0  0
   -3.7296   -4.0848   -0.0000 C   0  0  0  0  0  0  0  0  0  0  0  0
   -2.2364   -3.9279   -0.0000 C   0  0  0  0  0  0  0  0  0  0  0  0
   -1.3538   -5.1426   -0.0000 N   0  0  0  0  0  0  0  0  0  0  0  0
   -1.8178   -6.5707   -0.0000 C   0  0  0  0  0  0  0  0  0  0  0  0
    0.1477   -5.1426   -0.0000 C   0  0  0  0  0  0  0  0  0  0  0  0
   -0.6030   -7.4532   -0.0000 N   0  0  0  0  0  0  0  0  0  0  0  0
   -3.2458   -7.0346   -0.0000 C   0  0  0  0  0  0  0  0  0  0  0  0
    1.0303   -3.9279   -0.0000 C   0  0  0  0  0  0  0  0  0  0  0  0
    0.6117   -6.5707   -0.0000 C   0  0  0  0  0  0  0  0  0  0  0  0
   -3.5580   -8.5033   -0.0000 C   0  0  0  0  0  0  0  0  0  0  0  0
   -4.3573   -6.0533   -0.0000 C   0  0  0  0  0  0  0  0  0  0  0  0
    2.5235   -4.0848   -0.0000 C   0  0  0  0  0  0  0  0  0  0  0  0
    0.4196   -2.5562   -0.0000 C   0  0  0  0  0  0  0  0  0  0  0  0
    2.0397   -7.0346   -0.0000 C   0  0  0  0  0  0  0  0  0  0  0  0
   -4.9860   -8.9673   -0.0000 C   0  0  0  0  0  0  0  0  0  0  0  0
   -5.7896   -6.4939   -0.0000 C   0  0  0  0  0  0  0  0  0  0  0  0
    3.4061   -2.8701   -0.0000 C   0  0  0  0  0  0  0  0  0  0  0  0
    1.3021   -1.3415   -0.0000 C   0  0  0  0  0  0  0  0  0  0  0  0
    2.3519   -8.5033   -0.0000 C   0  0  0  0  0  0  0  0  0  0  0  0
    3.1555   -6.0299   -0.0000 C   0  0  0  0  0  0  0  0  0  0  0  0
   -5.2982  -10.4360   -0.0000 O   0  0  0  0  0  0  0  0  0  0  0  0
   -6.1018   -7.9626   -0.0000 C   0  0  0  0  0  0  0  0  0  0  0  0
    2.7954   -1.4984   -0.0000 C   0  0  0  0  0  0  0  0  0  0  0  0
    3.7799   -8.9673   -0.0000 C   0  0  0  0  0  0  0  0  0  0  0  0
    4.5836   -6.4939   -0.0000 C   0  0  0  0  0  0  0  0  0  0  0  0
   -6.7262  -10.9000   -0.0000 C   0  0  0  0  0  0  0  0  0  0  0  0
   -7.5298   -8.4266   -0.0000 O   0  0  0  0  0  0  0  0  0  0  0  0
    4.8957   -7.9626   -0.0000 C   0  0  0  0  0  0  0  0  0  0  0  0
   -8.6457   -7.4219   -0.0000 C   0  0  0  0  0  0  0  0  0  0  0  0
  1  2  1  0  0  0  0
  2  3  2  0  0  0  0
  2  4  1  0  0  0  0
  3  5  1  0  0  0  0
  3  6  1  0  0  0  0
  4  7  2  0  0  0  0
  5  8  1  0  0  0  0
  6  9  2  0  0  0  0
  7 10  1  0  0  0  0
  8 11  2  0  0  0  0
  8 12  1  0  0  0  0
 12 13  1  0  0  0  0
 13 14  1  0  0  0  0
 13 15  1  0  0  0  0
 14 16  2  0  0  0  0
 15 17  2  0  0  0  0
 17 18  1  0  0  0  0
 18 19  1  0  0  0  0
 19 20  1  0  0  0  0
 19 21  1  0  0  0  0
 20 22  2  0  0  0  0
 20 23  1  0  0  0  0
 21 24  1  0  0  0  0
 21 25  2  0  0  0  0
 23 26  2  0  0  0  0
 23 27  1  0  0  0  0
 24 28  2  0  0  0  0
 24 29  1  0  0  0  0
 25 30  1  0  0  0  0
 26 31  1  0  0  0  0
 27 32  2  0  0  0  0
 28 33  1  0  0  0  0
 29 34  2  0  0  0  0
 30 35  2  0  0  0  0
 30 36  1  0  0  0  0
 31 37  1  0  0  0  0
 31 38  2  0  0  0  0
 33 39  2  0  0  0  0
 35 40  1  0  0  0  0
 36 41  2  0  0  0  0
 37 42  1  0  0  0  0
 38 43  1  0  0  0  0
 40 44  2  0  0  0  0
 43 45  1  0  0  0  0
  7  9  1  0  0  0  0
 16 17  1  0  0  0  0
 22 25  1  0  0  0  0
 32 38  1  0  0  0  0
 34 39  1  0  0  0  0
 41 44  1  0  0  0  0
M  END
>  <S/N>
239

>  <Compound ID>
C_254

>  <PubChem CID>
134151767

>  <Isomeric SMILES>
COC1=C(C=C(C=C1)C2=NC(=C(N2CC3=CN(N=N3)CC(=O)NC4=C(C=C(C=C4)Cl)Cl)C5=CC=CC=C5)C6=CC=CC=C6)OC

>  <IC50 (�M)>
15

>  <pIC50>
4.82

$$$$
C_255
Actelion Java MolfileCreator 1.0

 42 47  0  0  0  0  0  0  0  0999 V2000
    4.5099    0.0302   -0.0000 Cl  0  0  0  0  0  0  0  0  0  0  0  0
    3.8992   -1.3415   -0.0000 C   0  0  0  0  0  0  0  0  0  0  0  0
    4.7818   -2.5562   -0.0000 C   0  0  0  0  0  0  0  0  0  0  0  0
    2.4059   -1.4984   -0.0000 C   0  0  0  0  0  0  0  0  0  0  0  0
    4.1710   -3.9279   -0.0000 C   0  0  0  0  0  0  0  0  0  0  0  0
    1.7952   -2.8701   -0.0000 C   0  0  0  0  0  0  0  0  0  0  0  0
    5.0536   -5.1426   -0.0000 C   0  0  0  0  0  0  0  0  0  0  0  0
    2.6778   -4.0848   -0.0000 C   0  0  0  0  0  0  0  0  0  0  0  0
    4.5896   -6.5706   -0.0000 N   0  0  0  0  0  0  0  0  0  0  0  0
    6.5551   -5.1426   -0.0000 N   0  0  0  0  0  0  0  0  0  0  0  0
    5.8043   -7.4531   -0.0000 C   0  0  0  0  0  0  0  0  0  0  0  0
    7.0191   -6.5706   -0.0000 C   0  0  0  0  0  0  0  0  0  0  0  0
    7.4376   -3.9279   -0.0000 C   0  0  0  0  0  0  0  0  0  0  0  0
    5.8043   -8.9546   -0.0000 C   0  0  0  0  0  0  0  0  0  0  0  0
    8.4471   -7.0346   -0.0000 C   0  0  0  0  0  0  0  0  0  0  0  0
    8.9309   -4.0848   -0.0000 C   0  0  0  0  0  0  0  0  0  0  0  0
    4.5040   -9.7054   -0.0000 C   0  0  0  0  0  0  0  0  0  0  0  0
    7.1047   -9.7054   -0.0000 C   0  0  0  0  0  0  0  0  0  0  0  0
    8.7592   -8.5032   -0.0000 C   0  0  0  0  0  0  0  0  0  0  0  0
    9.5543   -6.0767   -0.0000 C   0  0  0  0  0  0  0  0  0  0  0  0
    9.6860   -5.3617   -0.0000 N   0  0  0  0  0  0  0  0  0  0  0  0
    9.9356   -2.9690   -0.0000 C   0  0  0  0  0  0  0  0  0  0  0  0
    4.5040  -11.2069   -0.0000 C   0  0  0  0  0  0  0  0  0  0  0  0
    7.1047  -11.2069   -0.0000 C   0  0  0  0  0  0  0  0  0  0  0  0
   10.1872   -8.9672   -0.0000 C   0  0  0  0  0  0  0  0  0  0  0  0
   10.9909   -6.4939   -0.0000 C   0  0  0  0  0  0  0  0  0  0  0  0
   11.1503   -5.0730   -0.0000 N   0  0  0  0  0  0  0  0  0  0  0  0
   11.3073   -3.5797   -0.0000 N   0  0  0  0  0  0  0  0  0  0  0  0
    5.8043  -11.9576   -0.0000 C   0  0  0  0  0  0  0  0  0  0  0  0
   11.3031   -7.9625   -0.0000 C   0  0  0  0  0  0  0  0  0  0  0  0
   12.6076   -2.8290   -0.0000 C   0  0  0  0  0  0  0  0  0  0  0  0
   13.9079   -3.5797   -0.0000 C   0  0  0  0  0  0  0  0  0  0  0  0
   13.9079   -5.0812   -0.0000 O   0  0  0  0  0  0  0  0  0  0  0  0
   15.2082   -2.8290   -0.0000 N   0  0  0  0  0  0  0  0  0  0  0  0
   16.5086   -3.5797   -0.0000 C   0  0  0  0  0  0  0  0  0  0  0  0
   17.8089   -2.8290   -0.0000 C   0  0  0  0  0  0  0  0  0  0  0  0
   16.5086   -5.0812   -0.0000 C   0  0  0  0  0  0  0  0  0  0  0  0
   19.1092   -3.5797   -0.0000 C   0  0  0  0  0  0  0  0  0  0  0  0
   17.8089   -1.3275   -0.0000 C   0  0  0  0  0  0  0  0  0  0  0  0
   17.8089   -5.8319   -0.0000 C   0  0  0  0  0  0  0  0  0  0  0  0
   19.1092   -5.0812   -0.0000 C   0  0  0  0  0  0  0  0  0  0  0  0
   20.4095   -5.8319   -0.0000 C   0  0  0  0  0  0  0  0  0  0  0  0
  1  2  1  0  0  0  0
  2  3  2  0  0  0  0
  2  4  1  0  0  0  0
  3  5  1  0  0  0  0
  4  6  2  0  0  0  0
  5  7  1  0  0  0  0
  5  8  2  0  0  0  0
  7  9  2  0  0  0  0
  7 10  1  0  0  0  0
  9 11  1  0  0  0  0
 10 12  1  0  0  0  0
 10 13  1  0  0  0  0
 11 14  1  0  0  0  0
 12 15  1  0  0  0  0
 13 16  1  0  0  0  0
 14 17  2  0  0  0  0
 14 18  1  0  0  0  0
 15 19  2  0  0  0  0
 15 20  1  0  0  0  0
 16 21  1  0  0  0  0
 16 22  2  0  0  0  0
 17 23  1  0  0  0  0
 18 24  2  0  0  0  0
 19 25  1  0  0  0  0
 20 26  2  0  0  0  0
 21 27  2  0  0  0  0
 22 28  1  0  0  0  0
 23 29  2  0  0  0  0
 25 30  2  0  0  0  0
 28 31  1  0  0  0  0
 31 32  1  0  0  0  0
 32 33  2  0  0  0  0
 32 34  1  0  0  0  0
 34 35  1  0  0  0  0
 35 36  2  0  0  0  0
 35 37  1  0  0  0  0
 36 38  1  0  0  0  0
 36 39  1  0  0  0  0
 37 40  2  0  0  0  0
 38 41  2  0  0  0  0
 41 42  1  0  0  0  0
  6  8  1  0  0  0  0
 11 12  2  0  0  0  0
 24 29  1  0  0  0  0
 26 30  1  0  0  0  0
 27 28  1  0  0  0  0
 40 41  1  0  0  0  0
M  END
>  <S/N>
240

>  <Compound ID>
C_255

>  <PubChem CID>
134156711

>  <Isomeric SMILES>
CC1=CC(=C(C=C1)NC(=O)CN2C=C(N=N2)CN3C(=C(N=C3C4=CC(=CC=C4)Cl)C5=CC=CC=C5)C6=CC=CC=C6)C

>  <IC50 (�M)>
15

>  <pIC50>
4.82

$$$$
C_256
Actelion Java MolfileCreator 1.0

 45 50  0  0  0  0  0  0  0  0999 V2000
   -4.0481    6.1983   -0.0000 Cl  0  0  0  0  0  0  0  0  0  0  0  0
   -5.1639    5.1937   -0.0000 C   0  0  0  0  0  0  0  0  0  0  0  0
   -4.8517    3.7251   -0.0000 C   0  0  0  0  0  0  0  0  0  0  0  0
   -6.5918    5.6576   -0.0000 C   0  0  0  0  0  0  0  0  0  0  0  0
   -3.4238    3.2611   -0.0000 N   0  0  0  0  0  0  0  0  0  0  0  0
   -5.9675    2.7204   -0.0000 C   0  0  0  0  0  0  0  0  0  0  0  0
   -7.7076    4.6530   -0.0000 C   0  0  0  0  0  0  0  0  0  0  0  0
   -3.1117    1.7925   -0.0000 C   0  0  0  0  0  0  0  0  0  0  0  0
   -7.3954    3.1844   -0.0000 C   0  0  0  0  0  0  0  0  0  0  0  0
   -4.2274    0.7879   -0.0000 O   0  0  0  0  0  0  0  0  0  0  0  0
   -1.6838    1.3286   -0.0000 C   0  0  0  0  0  0  0  0  0  0  0  0
   -8.5112    2.1798   -0.0000 Cl  0  0  0  0  0  0  0  0  0  0  0  0
   -1.3716   -0.1400   -0.0000 N   0  0  0  0  0  0  0  0  0  0  0  0
   -0.0000   -0.7507   -0.0000 N   0  0  0  0  0  0  0  0  0  0  0  0
   -2.3762   -1.2558   -0.0000 C   0  0  0  0  0  0  0  0  0  0  0  0
   -0.1779   -2.2325   -0.0000 N   0  0  0  0  0  0  0  0  0  0  0  0
   -1.6255   -2.5560   -0.0000 C   0  0  0  0  0  0  0  0  0  0  0  0
   -2.2362   -3.9276   -0.0000 C   0  0  0  0  0  0  0  0  0  0  0  0
   -1.3537   -5.1423   -0.0000 N   0  0  0  0  0  0  0  0  0  0  0  0
   -1.8177   -6.5702   -0.0000 C   0  0  0  0  0  0  0  0  0  0  0  0
    0.1477   -5.1423   -0.0000 C   0  0  0  0  0  0  0  0  0  0  0  0
   -0.6030   -7.4527   -0.0000 N   0  0  0  0  0  0  0  0  0  0  0  0
   -3.2456   -7.0342   -0.0000 C   0  0  0  0  0  0  0  0  0  0  0  0
    1.0302   -3.9276   -0.0000 C   0  0  0  0  0  0  0  0  0  0  0  0
    0.6117   -6.5702   -0.0000 C   0  0  0  0  0  0  0  0  0  0  0  0
   -4.3613   -6.0295   -0.0000 C   0  0  0  0  0  0  0  0  0  0  0  0
   -3.5577   -8.5027   -0.0000 C   0  0  0  0  0  0  0  0  0  0  0  0
    2.5234   -4.0846   -0.0000 C   0  0  0  0  0  0  0  0  0  0  0  0
    0.4614   -2.5787   -0.0000 C   0  0  0  0  0  0  0  0  0  0  0  0
    2.0396   -7.0342   -0.0000 C   0  0  0  0  0  0  0  0  0  0  0  0
   -5.7892   -6.4935   -0.0000 C   0  0  0  0  0  0  0  0  0  0  0  0
   -4.9856   -8.9667   -0.0000 C   0  0  0  0  0  0  0  0  0  0  0  0
    3.4059   -2.8699   -0.0000 C   0  0  0  0  0  0  0  0  0  0  0  0
    1.3020   -1.3414   -0.0000 C   0  0  0  0  0  0  0  0  0  0  0  0
    2.3517   -8.5027   -0.0000 C   0  0  0  0  0  0  0  0  0  0  0  0
    3.1553   -6.0295   -0.0000 C   0  0  0  0  0  0  0  0  0  0  0  0
   -6.1014   -7.9621   -0.0000 C   0  0  0  0  0  0  0  0  0  0  0  0
    2.7952   -1.4983   -0.0000 C   0  0  0  0  0  0  0  0  0  0  0  0
    3.7796   -8.9667   -0.0000 C   0  0  0  0  0  0  0  0  0  0  0  0
    4.5832   -6.4935   -0.0000 C   0  0  0  0  0  0  0  0  0  0  0  0
   -7.5293   -8.4260   -0.0000 C   0  0  0  0  0  0  0  0  0  0  0  0
    4.8954   -7.9621   -0.0000 C   0  0  0  0  0  0  0  0  0  0  0  0
   -7.8415   -9.8946   -0.0000 O   0  0  0  0  0  0  0  0  0  0  0  0
   -8.6451   -7.4214   -0.0000 O   0  0  0  0  0  0  0  0  0  0  0  0
  -10.0730   -7.8854   -0.0000 C   0  0  0  0  0  0  0  0  0  0  0  0
  1  2  1  0  0  0  0
  2  3  2  0  0  0  0
  2  4  1  0  0  0  0
  3  5  1  0  0  0  0
  3  6  1  0  0  0  0
  4  7  2  0  0  0  0
  5  8  1  0  0  0  0
  6  9  2  0  0  0  0
  8 10  2  0  0  0  0
  8 11  1  0  0  0  0
  9 12  1  0  0  0  0
 11 13  1  0  0  0  0
 13 14  1  0  0  0  0
 13 15  1  0  0  0  0
 14 16  2  0  0  0  0
 15 17  2  0  0  0  0
 17 18  1  0  0  0  0
 18 19  1  0  0  0  0
 19 20  1  0  0  0  0
 19 21  1  0  0  0  0
 20 22  2  0  0  0  0
 20 23  1  0  0  0  0
 21 24  1  0  0  0  0
 21 25  2  0  0  0  0
 23 26  2  0  0  0  0
 23 27  1  0  0  0  0
 24 28  2  0  0  0  0
 24 29  1  0  0  0  0
 25 30  1  0  0  0  0
 26 31  1  0  0  0  0
 27 32  2  0  0  0  0
 28 33  1  0  0  0  0
 29 34  2  0  0  0  0
 30 35  2  0  0  0  0
 30 36  1  0  0  0  0
 31 37  2  0  0  0  0
 33 38  2  0  0  0  0
 35 39  1  0  0  0  0
 36 40  2  0  0  0  0
 37 41  1  0  0  0  0
 39 42  2  0  0  0  0
 41 43  2  0  0  0  0
 41 44  1  0  0  0  0
 44 45  1  0  0  0  0
  7  9  1  0  0  0  0
 16 17  1  0  0  0  0
 22 25  1  0  0  0  0
 32 37  1  0  0  0  0
 34 38  1  0  0  0  0
 40 42  1  0  0  0  0
M  END
>  <S/N>
241

>  <Compound ID>
C_256

>  <PubChem CID>
134157314

>  <Isomeric SMILES>
COC(=O)C1=CC=C(C=C1)C2=NC(=C(N2CC3=CN(N=N3)CC(=O)NC4=C(C=CC(=C4)Cl)Cl)C5=CC=CC=C5)C6=CC=CC=C6

>  <IC50 (�M)>
15

>  <pIC50>
4.82

$$$$
C_257
Actelion Java MolfileCreator 1.0

 30 34  0  0  0  0  0  0  0  0999 V2000
    4.3776   -0.0933   -0.0000 S   0  0  0  0  0  0  0  0  0  0  0  0
    3.4641   -0.5000   -0.0000 C   0  0  0  0  0  0  0  0  0  0  0  0
    5.0468   -0.8364   -0.0000 C   0  0  0  0  0  0  0  0  0  0  0  0
    3.5686   -1.4945   -0.0000 N   0  0  0  0  0  0  0  0  0  0  0  0
    2.5981   -0.0000   -0.0000 N   0  0  0  0  0  0  0  0  0  0  0  0
    4.5468   -1.7024   -0.0000 C   0  0  0  0  0  0  0  0  0  0  0  0
    1.7321   -0.5000   -0.0000 N   0  0  0  0  0  0  0  0  0  0  0  0
    4.9535   -2.6160   -0.0000 C   0  0  0  0  0  0  0  0  0  0  0  0
    0.8660   -0.0000   -0.0000 C   0  0  0  0  0  0  0  0  0  0  0  0
    4.3657   -3.4250   -0.0000 C   0  0  0  0  0  0  0  0  0  0  0  0
    5.9480   -2.7205   -0.0000 C   0  0  0  0  0  0  0  0  0  0  0  0
    0.0000   -0.5000   -0.0000 C   0  0  0  0  0  0  0  0  0  0  0  0
    4.7725   -4.3385   -0.0000 C   0  0  0  0  0  0  0  0  0  0  0  0
    6.3548   -3.6341   -0.0000 C   0  0  0  0  0  0  0  0  0  0  0  0
   -0.8660    0.0000   -0.0000 C   0  0  0  0  0  0  0  0  0  0  0  0
   -0.0000   -1.5000   -0.0000 C   0  0  0  0  0  0  0  0  0  0  0  0
    5.7670   -4.4431   -0.0000 C   0  0  0  0  0  0  0  0  0  0  0  0
   -1.7321   -0.5000   -0.0000 C   0  0  0  0  0  0  0  0  0  0  0  0
   -0.8660    1.0000   -0.0000 C   0  0  0  0  0  0  0  0  0  0  0  0
   -0.8660   -2.0000   -0.0000 C   0  0  0  0  0  0  0  0  0  0  0  0
    6.1737   -5.3566   -0.0000 C   0  0  0  0  0  0  0  0  0  0  0  0
   -1.7321   -1.5000   -0.0000 C   0  0  0  0  0  0  0  0  0  0  0  0
   -2.5981    0.0000   -0.0000 C   0  0  0  0  0  0  0  0  0  0  0  0
   -1.7321    1.5000   -0.0000 C   0  0  0  0  0  0  0  0  0  0  0  0
    5.5859   -6.1656   -0.0000 C   0  0  0  0  0  0  0  0  0  0  0  0
    7.1682   -5.4611   -0.0000 C   0  0  0  0  0  0  0  0  0  0  0  0
   -2.5981    1.0000   -0.0000 C   0  0  0  0  0  0  0  0  0  0  0  0
    5.9927   -7.0792   -0.0000 C   0  0  0  0  0  0  0  0  0  0  0  0
    7.5750   -6.3747   -0.0000 C   0  0  0  0  0  0  0  0  0  0  0  0
    6.9872   -7.1837   -0.0000 C   0  0  0  0  0  0  0  0  0  0  0  0
  1  2  1  0  0  0  0
  1  3  1  0  0  0  0
  2  4  2  0  0  0  0
  2  5  1  0  0  0  0
  3  6  2  0  0  0  0
  5  7  1  0  0  0  0
  6  8  1  0  0  0  0
  7  9  2  0  0  0  0
  8 10  2  0  0  0  0
  8 11  1  0  0  0  0
  9 12  1  0  0  0  0
 10 13  1  0  0  0  0
 11 14  2  0  0  0  0
 12 15  1  0  0  0  0
 12 16  2  0  0  0  0
 13 17  2  0  0  0  0
 15 18  2  0  0  0  0
 15 19  1  0  0  0  0
 16 20  1  0  0  0  0
 17 21  1  0  0  0  0
 18 22  1  0  0  0  0
 18 23  1  0  0  0  0
 19 24  2  0  0  0  0
 21 25  2  0  0  0  0
 21 26  1  0  0  0  0
 23 27  2  0  0  0  0
 25 28  1  0  0  0  0
 26 29  2  0  0  0  0
 28 30  2  0  0  0  0
  4  6  1  0  0  0  0
 14 17  1  0  0  0  0
 20 22  2  0  0  0  0
 24 27  1  0  0  0  0
 29 30  1  0  0  0  0
M  END
>  <S/N>
242

>  <Compound ID>
C_257

>  <PubChem CID>
135391860

>  <Isomeric SMILES>
C1=CC=C(C=C1)C2=CC=C(C=C2)C3=CSC(=N3)N/N=C/C4=CC=CC5=CC=CC=C54

>  <IC50 (�M)>
6.2

>  <pIC50>
5.21

$$$$
C_258
Actelion Java MolfileCreator 1.0

 23 25  0  0  0  0  0  0  0  0999 V2000
    6.4952   -0.0000   -0.0000 O   0  0  0  0  0  0  0  0  0  0  0  0
    5.1962   -0.7500   -0.0000 C   0  0  0  0  0  0  0  0  0  0  0  0
    3.8971   -0.0000   -0.0000 N   0  0  0  0  0  0  0  0  0  0  0  0
    5.1962   -2.2500   -0.0000 C   0  0  0  0  0  0  0  0  0  0  0  0
    2.5981   -0.7500   -0.0000 N   0  0  0  0  0  0  0  0  0  0  0  0
    3.9826   -3.1317   -0.0000 N   0  0  0  0  0  0  0  0  0  0  0  0
    6.4097   -3.1317   -0.0000 C   0  0  0  0  0  0  0  0  0  0  0  0
    1.2990   -0.0000   -0.0000 C   0  0  0  0  0  0  0  0  0  0  0  0
    4.4462   -4.5583   -0.0000 C   0  0  0  0  0  0  0  0  0  0  0  0
    5.9462   -4.5583   -0.0000 C   0  0  0  0  0  0  0  0  0  0  0  0
    0.0000   -0.7500   -0.0000 C   0  0  0  0  0  0  0  0  0  0  0  0
    3.6962   -5.8573   -0.0000 C   0  0  0  0  0  0  0  0  0  0  0  0
    6.6962   -5.8573   -0.0000 C   0  0  0  0  0  0  0  0  0  0  0  0
   -1.2990    0.0000   -0.0000 C   0  0  0  0  0  0  0  0  0  0  0  0
   -0.0000   -2.2500   -0.0000 C   0  0  0  0  0  0  0  0  0  0  0  0
    4.4462   -7.1563   -0.0000 C   0  0  0  0  0  0  0  0  0  0  0  0
    5.9462   -7.1563   -0.0000 C   0  0  0  0  0  0  0  0  0  0  0  0
   -2.5981   -0.7500   -0.0000 C   0  0  0  0  0  0  0  0  0  0  0  0
   -1.2990   -3.0000   -0.0000 C   0  0  0  0  0  0  0  0  0  0  0  0
   -3.8971    0.0000   -0.0000 O   0  0  0  0  0  0  0  0  0  0  0  0
   -2.5981   -2.2500   -0.0000 C   0  0  0  0  0  0  0  0  0  0  0  0
   -5.1962   -0.7500   -0.0000 C   0  0  0  0  0  0  0  0  0  0  0  0
   -3.8971   -3.0000   -0.0000 O   0  0  0  0  0  0  0  0  0  0  0  0
  1  2  2  0  0  0  0
  2  3  1  0  0  0  0
  2  4  1  0  0  0  0
  3  5  1  0  0  0  0
  4  6  1  0  0  0  0
  4  7  2  0  0  0  0
  5  8  2  0  0  0  0
  6  9  1  0  0  0  0
  7 10  1  0  0  0  0
  8 11  1  0  0  0  0
  9 12  1  0  0  0  0
 10 13  1  0  0  0  0
 11 14  2  0  0  0  0
 11 15  1  0  0  0  0
 12 16  2  0  0  0  0
 13 17  2  0  0  0  0
 14 18  1  0  0  0  0
 15 19  2  0  0  0  0
 18 20  1  0  0  0  0
 18 21  2  0  0  0  0
 20 22  1  0  0  0  0
 21 23  1  0  0  0  0
  9 10  2  0  0  0  0
 16 17  1  0  0  0  0
 19 21  1  0  0  0  0
M  END
>  <S/N>
243

>  <Compound ID>
C_258

>  <PubChem CID>
135580822

>  <Isomeric SMILES>
COC1=C(C=CC(=C1)/C=N/NC(=O)C2=CC3=CC=CC=C3N2)O

>  <IC50 (�M)>
2.3

>  <pIC50>
5.64

$$$$
C_259
Actelion Java MolfileCreator 1.0

 23 25  0  0  0  0  0  0  0  0999 V2000
    5.1962   -1.5000   -0.0000 O   0  0  0  0  0  0  0  0  0  0  0  0
    5.1962   -0.5000   -0.0000 C   0  0  0  0  0  0  0  0  0  0  0  0
    6.0622   -0.0000   -0.0000 O   0  0  0  0  0  0  0  0  0  0  0  0
    4.3301   -0.0000   -0.0000 C   0  0  0  0  0  0  0  0  0  0  0  0
    6.0622    1.0000   -0.0000 C   0  0  0  0  0  0  0  0  0  0  0  0
    3.4641   -0.5000   -0.0000 C   0  0  0  0  0  0  0  0  0  0  0  0
    4.3301    1.0000   -0.0000 C   0  0  0  0  0  0  0  0  0  0  0  0
    5.1962    1.5000   -0.0000 C   0  0  0  0  0  0  0  0  0  0  0  0
    6.9282    1.5000   -0.0000 C   0  0  0  0  0  0  0  0  0  0  0  0
    3.4641   -1.5000   -0.0000 O   0  0  0  0  0  0  0  0  0  0  0  0
    2.5981   -0.0000   -0.0000 N   0  0  0  0  0  0  0  0  0  0  0  0
    5.1962    2.5000   -0.0000 C   0  0  0  0  0  0  0  0  0  0  0  0
    6.9282    2.5000   -0.0000 C   0  0  0  0  0  0  0  0  0  0  0  0
    1.7321   -0.5000   -0.0000 N   0  0  0  0  0  0  0  0  0  0  0  0
    6.0622    3.0000   -0.0000 C   0  0  0  0  0  0  0  0  0  0  0  0
    0.8660   -0.0000   -0.0000 C   0  0  0  0  0  0  0  0  0  0  0  0
    0.0000   -0.5000   -0.0000 C   0  0  0  0  0  0  0  0  0  0  0  0
   -0.8660    0.0000   -0.0000 C   0  0  0  0  0  0  0  0  0  0  0  0
   -0.0000   -1.5000   -0.0000 C   0  0  0  0  0  0  0  0  0  0  0  0
   -0.8660    1.0000   -0.0000 O   0  0  0  0  0  0  0  0  0  0  0  0
   -1.7321   -0.5000   -0.0000 C   0  0  0  0  0  0  0  0  0  0  0  0
   -0.8660   -2.0000   -0.0000 C   0  0  0  0  0  0  0  0  0  0  0  0
   -1.7321   -1.5000   -0.0000 C   0  0  0  0  0  0  0  0  0  0  0  0
  1  2  2  0  0  0  0
  2  3  1  0  0  0  0
  2  4  1  0  0  0  0
  3  5  1  0  0  0  0
  4  6  1  0  0  0  0
  4  7  2  0  0  0  0
  5  8  2  0  0  0  0
  5  9  1  0  0  0  0
  6 10  2  0  0  0  0
  6 11  1  0  0  0  0
  8 12  1  0  0  0  0
  9 13  2  0  0  0  0
 11 14  1  0  0  0  0
 12 15  2  0  0  0  0
 14 16  2  0  0  0  0
 16 17  1  0  0  0  0
 17 18  2  0  0  0  0
 17 19  1  0  0  0  0
 18 20  1  0  0  0  0
 18 21  1  0  0  0  0
 19 22  2  0  0  0  0
 21 23  2  0  0  0  0
  7  8  1  0  0  0  0
 13 15  1  0  0  0  0
 22 23  1  0  0  0  0
M  END
>  <S/N>
244

>  <Compound ID>
C_259

>  <PubChem CID>
135580865

>  <Isomeric SMILES>
C1=CC=C2C(=C1)C=C(C(=O)O2)C(=O)N/N=C/C3=CC=CC=C3O

>  <IC50 (�M)>
1.1

>  <pIC50>
5.96

$$$$
C_260
Actelion Java MolfileCreator 1.0

 21 23  0  0  0  0  0  0  0  0999 V2000
    6.4952   -0.0000   -0.0000 O   0  0  0  0  0  0  0  0  0  0  0  0
    5.1962   -0.7500   -0.0000 C   0  0  0  0  0  0  0  0  0  0  0  0
    3.8971   -0.0000   -0.0000 N   0  0  0  0  0  0  0  0  0  0  0  0
    5.1962   -2.2500   -0.0000 C   0  0  0  0  0  0  0  0  0  0  0  0
    2.5981   -0.7500   -0.0000 N   0  0  0  0  0  0  0  0  0  0  0  0
    3.9826   -3.1317   -0.0000 N   0  0  0  0  0  0  0  0  0  0  0  0
    6.4097   -3.1317   -0.0000 C   0  0  0  0  0  0  0  0  0  0  0  0
    1.2990   -0.0000   -0.0000 C   0  0  0  0  0  0  0  0  0  0  0  0
    4.4462   -4.5583   -0.0000 C   0  0  0  0  0  0  0  0  0  0  0  0
    5.9462   -4.5583   -0.0000 C   0  0  0  0  0  0  0  0  0  0  0  0
    0.0000   -0.7500   -0.0000 C   0  0  0  0  0  0  0  0  0  0  0  0
    3.6962   -5.8573   -0.0000 C   0  0  0  0  0  0  0  0  0  0  0  0
    6.6962   -5.8573   -0.0000 C   0  0  0  0  0  0  0  0  0  0  0  0
   -1.2990    0.0000   -0.0000 C   0  0  0  0  0  0  0  0  0  0  0  0
   -0.0000   -2.2500   -0.0000 C   0  0  0  0  0  0  0  0  0  0  0  0
    4.4462   -7.1563   -0.0000 C   0  0  0  0  0  0  0  0  0  0  0  0
    5.9462   -7.1563   -0.0000 C   0  0  0  0  0  0  0  0  0  0  0  0
   -2.5981   -0.7500   -0.0000 C   0  0  0  0  0  0  0  0  0  0  0  0
   -1.2990   -3.0000   -0.0000 C   0  0  0  0  0  0  0  0  0  0  0  0
   -2.5981   -2.2500   -0.0000 C   0  0  0  0  0  0  0  0  0  0  0  0
   -3.8971   -3.0000   -0.0000 O   0  0  0  0  0  0  0  0  0  0  0  0
  1  2  2  0  0  0  0
  2  3  1  0  0  0  0
  2  4  1  0  0  0  0
  3  5  1  0  0  0  0
  4  6  1  0  0  0  0
  4  7  2  0  0  0  0
  5  8  2  0  0  0  0
  6  9  1  0  0  0  0
  7 10  1  0  0  0  0
  8 11  1  0  0  0  0
  9 12  1  0  0  0  0
 10 13  1  0  0  0  0
 11 14  2  0  0  0  0
 11 15  1  0  0  0  0
 12 16  2  0  0  0  0
 13 17  2  0  0  0  0
 14 18  1  0  0  0  0
 15 19  2  0  0  0  0
 18 20  2  0  0  0  0
 20 21  1  0  0  0  0
  9 10  2  0  0  0  0
 16 17  1  0  0  0  0
 19 20  1  0  0  0  0
M  END
>  <S/N>
245

>  <Compound ID>
C_260

>  <PubChem CID>
135603218

>  <Isomeric SMILES>
C1=CC=C2C(=C1)C=C(N2)C(=O)N/N=C/C3=CC=C(C=C3)O

>  <IC50 (�M)>
2.3

>  <pIC50>
5.64

$$$$
C_261
Actelion Java MolfileCreator 1.0

 17 19  0  0  0  0  0  0  0  0999 V2000
    5.1962    2.2500   -0.0000 O   0  0  0  0  0  0  0  0  0  0  0  0
    3.8971    1.5000   -0.0000 C   0  0  0  0  0  0  0  0  0  0  0  0
    2.5981    2.2500   -0.0000 C   0  0  0  0  0  0  0  0  0  0  0  0
    3.8971   -0.0000   -0.0000 C   0  0  0  0  0  0  0  0  0  0  0  0
    1.2990    1.5000   -0.0000 C   0  0  0  0  0  0  0  0  0  0  0  0
    2.5981   -0.7500   -0.0000 C   0  0  0  0  0  0  0  0  0  0  0  0
    1.2990   -0.0000   -0.0000 C   0  0  0  0  0  0  0  0  0  0  0  0
    0.0000   -0.7500   -0.0000 C   0  0  0  0  0  0  0  0  0  0  0  0
   -1.3703   -0.1399   -0.0000 N   0  0  0  0  0  0  0  0  0  0  0  0
   -0.1568   -2.2418   -0.0000 N   0  0  0  0  0  0  0  0  0  0  0  0
   -2.3740   -1.2546   -0.0000 C   0  0  0  0  0  0  0  0  0  0  0  0
   -1.6240   -2.5537   -0.0000 C   0  0  0  0  0  0  0  0  0  0  0  0
   -3.8740   -1.2546   -0.0000 C   0  0  0  0  0  0  0  0  0  0  0  0
   -2.3740   -3.8527   -0.0000 C   0  0  0  0  0  0  0  0  0  0  0  0
   -4.6240   -2.5537   -0.0000 C   0  0  0  0  0  0  0  0  0  0  0  0
   -4.6240    0.0444   -0.0000 C   0  0  0  0  0  0  0  0  0  0  0  0
   -3.8740   -3.8527   -0.0000 C   0  0  0  0  0  0  0  0  0  0  0  0
  1  2  1  0  0  0  0
  2  3  2  0  0  0  0
  2  4  1  0  0  0  0
  3  5  1  0  0  0  0
  4  6  2  0  0  0  0
  5  7  2  0  0  0  0
  7  8  1  0  0  0  0
  8  9  2  0  0  0  0
  8 10  1  0  0  0  0
  9 11  1  0  0  0  0
 10 12  1  0  0  0  0
 11 13  2  0  0  0  0
 12 14  2  0  0  0  0
 13 15  1  0  0  0  0
 13 16  1  0  0  0  0
 14 17  1  0  0  0  0
  6  7  1  0  0  0  0
 11 12  1  0  0  0  0
 15 17  2  0  0  0  0
M  END
>  <S/N>
246

>  <Compound ID>
C_261

>  <PubChem CID>
135974165

>  <Isomeric SMILES>
CC1=C2C(=CC=C1)NC(=N2)C3=CC=C(C=C3)O

>  <IC50 (�M)>
5.3

>  <pIC50>
5.28

$$$$
C_262
Actelion Java MolfileCreator 1.0

 17 19  0  0  0  0  0  0  0  0999 V2000
    0.0000    2.2500   -0.0000 O   0  0  0  0  0  0  0  0  0  0  0  0
    1.2990    1.5000   -0.0000 C   0  0  0  0  0  0  0  0  0  0  0  0
    1.2990   -0.0000   -0.0000 C   0  0  0  0  0  0  0  0  0  0  0  0
    2.5981    2.2500   -0.0000 C   0  0  0  0  0  0  0  0  0  0  0  0
    0.0000   -0.7500   -0.0000 C   0  0  0  0  0  0  0  0  0  0  0  0
    2.5981   -0.7500   -0.0000 C   0  0  0  0  0  0  0  0  0  0  0  0
    3.8971    1.5000   -0.0000 C   0  0  0  0  0  0  0  0  0  0  0  0
   -1.3703   -0.1399   -0.0000 N   0  0  0  0  0  0  0  0  0  0  0  0
   -0.1568   -2.2418   -0.0000 N   0  0  0  0  0  0  0  0  0  0  0  0
    3.8971   -0.0000   -0.0000 C   0  0  0  0  0  0  0  0  0  0  0  0
   -2.3740   -1.2546   -0.0000 C   0  0  0  0  0  0  0  0  0  0  0  0
   -1.6240   -2.5537   -0.0000 C   0  0  0  0  0  0  0  0  0  0  0  0
   -3.8740   -1.2546   -0.0000 C   0  0  0  0  0  0  0  0  0  0  0  0
   -2.3740   -3.8527   -0.0000 C   0  0  0  0  0  0  0  0  0  0  0  0
   -4.6240   -2.5537   -0.0000 C   0  0  0  0  0  0  0  0  0  0  0  0
   -4.6240    0.0444   -0.0000 C   0  0  0  0  0  0  0  0  0  0  0  0
   -3.8740   -3.8527   -0.0000 C   0  0  0  0  0  0  0  0  0  0  0  0
  1  2  1  0  0  0  0
  2  3  2  0  0  0  0
  2  4  1  0  0  0  0
  3  5  1  0  0  0  0
  3  6  1  0  0  0  0
  4  7  2  0  0  0  0
  5  8  2  0  0  0  0
  5  9  1  0  0  0  0
  6 10  2  0  0  0  0
  8 11  1  0  0  0  0
  9 12  1  0  0  0  0
 11 13  2  0  0  0  0
 12 14  2  0  0  0  0
 13 15  1  0  0  0  0
 13 16  1  0  0  0  0
 14 17  1  0  0  0  0
  7 10  1  0  0  0  0
 11 12  1  0  0  0  0
 15 17  2  0  0  0  0
M  END
>  <S/N>
247

>  <Compound ID>
C_262

>  <PubChem CID>
136163007

>  <Isomeric SMILES>
CC1=C2C(=CC=C1)NC(=N2)C3=CC=CC=C3O

>  <IC50 (�M)>
5.3

>  <pIC50>
5.28

$$$$
C_263
Actelion Java MolfileCreator 1.0

 19 21  0  0  0  0  0  0  0  0999 V2000
    0.8660   -0.0000   -0.0000 O   0  0  0  0  0  0  0  0  0  0  0  0
    1.7321   -0.5000   -0.0000 C   0  0  0  0  0  0  0  0  0  0  0  0
    0.0000   -0.5000   -0.0000 C   0  0  0  0  0  0  0  0  0  0  0  0
    1.7321   -1.5000   -0.0000 C   0  0  0  0  0  0  0  0  0  0  0  0
    2.5981   -0.0000   -0.0000 C   0  0  0  0  0  0  0  0  0  0  0  0
    2.5981   -2.0000   -0.0000 C   0  0  0  0  0  0  0  0  0  0  0  0
    3.4641   -0.5000   -0.0000 C   0  0  0  0  0  0  0  0  0  0  0  0
    2.5981   -3.0000   -0.0000 O   0  0  0  0  0  0  0  0  0  0  0  0
    3.4641   -1.5000   -0.0000 C   0  0  0  0  0  0  0  0  0  0  0  0
    4.3301   -2.0000   -0.0000 C   0  0  0  0  0  0  0  0  0  0  0  0
    4.4347   -2.9945   -0.0000 N   0  0  0  0  0  0  0  0  0  0  0  0
    5.2437   -1.5933   -0.0000 N   0  0  0  0  0  0  0  0  0  0  0  0
    5.4128   -3.2024   -0.0000 C   0  0  0  0  0  0  0  0  0  0  0  0
    5.9128   -2.3364   -0.0000 C   0  0  0  0  0  0  0  0  0  0  0  0
    5.9128   -4.0685   -0.0000 C   0  0  0  0  0  0  0  0  0  0  0  0
    6.9128   -2.3364   -0.0000 C   0  0  0  0  0  0  0  0  0  0  0  0
    6.9128   -4.0685   -0.0000 C   0  0  0  0  0  0  0  0  0  0  0  0
    5.4128   -4.9345   -0.0000 C   0  0  0  0  0  0  0  0  0  0  0  0
    7.4128   -3.2024   -0.0000 C   0  0  0  0  0  0  0  0  0  0  0  0
  1  2  1  0  0  0  0
  1  3  1  0  0  0  0
  2  4  2  0  0  0  0
  2  5  1  0  0  0  0
  4  6  1  0  0  0  0
  5  7  2  0  0  0  0
  6  8  1  0  0  0  0
  6  9  2  0  0  0  0
  9 10  1  0  0  0  0
 10 11  2  0  0  0  0
 10 12  1  0  0  0  0
 11 13  1  0  0  0  0
 12 14  1  0  0  0  0
 13 15  2  0  0  0  0
 14 16  2  0  0  0  0
 15 17  1  0  0  0  0
 15 18  1  0  0  0  0
 16 19  1  0  0  0  0
  7  9  1  0  0  0  0
 13 14  1  0  0  0  0
 17 19  2  0  0  0  0
M  END
>  <S/N>
248

>  <Compound ID>
C_263

>  <PubChem CID>
136168639

>  <Isomeric SMILES>
CC1=C2C(=CC=C1)NC(=N2)C3=C(C=C(C=C3)OC)O

>  <IC50 (�M)>
5.3

>  <pIC50>
5.28

$$$$
C_264
Actelion Java MolfileCreator 1.0

 19 21  0  0  0  0  0  0  0  0999 V2000
    0.8660   -0.0000   -0.0000 O   0  0  0  0  0  0  0  0  0  0  0  0
    1.7321   -0.5000   -0.0000 C   0  0  0  0  0  0  0  0  0  0  0  0
    0.0000   -0.5000   -0.0000 C   0  0  0  0  0  0  0  0  0  0  0  0
    1.7321   -1.5000   -0.0000 C   0  0  0  0  0  0  0  0  0  0  0  0
    2.5981   -0.0000   -0.0000 C   0  0  0  0  0  0  0  0  0  0  0  0
    2.5981   -2.0000   -0.0000 C   0  0  0  0  0  0  0  0  0  0  0  0
    3.4641   -0.5000   -0.0000 C   0  0  0  0  0  0  0  0  0  0  0  0
    3.4641   -1.5000   -0.0000 C   0  0  0  0  0  0  0  0  0  0  0  0
    2.5981   -3.0000   -0.0000 C   0  0  0  0  0  0  0  0  0  0  0  0
    4.3301   -2.0000   -0.0000 O   0  0  0  0  0  0  0  0  0  0  0  0
    1.7891   -3.5878   -0.0000 N   0  0  0  0  0  0  0  0  0  0  0  0
    3.4071   -3.5878   -0.0000 N   0  0  0  0  0  0  0  0  0  0  0  0
    2.0981   -4.5388   -0.0000 C   0  0  0  0  0  0  0  0  0  0  0  0
    3.0981   -4.5388   -0.0000 C   0  0  0  0  0  0  0  0  0  0  0  0
    1.5981   -5.4049   -0.0000 C   0  0  0  0  0  0  0  0  0  0  0  0
    3.5981   -5.4049   -0.0000 C   0  0  0  0  0  0  0  0  0  0  0  0
    2.0981   -6.2709   -0.0000 C   0  0  0  0  0  0  0  0  0  0  0  0
    0.5981   -5.4049   -0.0000 C   0  0  0  0  0  0  0  0  0  0  0  0
    3.0981   -6.2709   -0.0000 C   0  0  0  0  0  0  0  0  0  0  0  0
  1  2  1  0  0  0  0
  1  3  1  0  0  0  0
  2  4  2  0  0  0  0
  2  5  1  0  0  0  0
  4  6  1  0  0  0  0
  5  7  2  0  0  0  0
  6  8  2  0  0  0  0
  6  9  1  0  0  0  0
  8 10  1  0  0  0  0
  9 11  2  0  0  0  0
  9 12  1  0  0  0  0
 11 13  1  0  0  0  0
 12 14  1  0  0  0  0
 13 15  2  0  0  0  0
 14 16  2  0  0  0  0
 15 17  1  0  0  0  0
 15 18  1  0  0  0  0
 16 19  1  0  0  0  0
  7  8  1  0  0  0  0
 13 14  1  0  0  0  0
 17 19  2  0  0  0  0
M  END
>  <S/N>
249

>  <Compound ID>
C_264

>  <PubChem CID>
136168640

>  <Isomeric SMILES>
CC1=C2C(=CC=C1)NC(=N2)C3=C(C=CC(=C3)OC)O

>  <IC50 (�M)>
5.3

>  <pIC50>
5.28

$$$$
C_265
Actelion Java MolfileCreator 1.0

 29 32  0  0  0  0  0  0  0  0999 V2000
    7.0327    2.4945   -0.0000 S   0  0  0  0  0  0  0  0  0  0  0  0
    6.9282    1.5000   -0.0000 C   0  0  0  0  0  0  0  0  0  0  0  0
    8.0109    2.7024   -0.0000 C   0  0  0  0  0  0  0  0  0  0  0  0
    7.8417    1.0933   -0.0000 N   0  0  0  0  0  0  0  0  0  0  0  0
    6.0622    1.0000   -0.0000 C   0  0  0  0  0  0  0  0  0  0  0  0
    8.5109    1.8364   -0.0000 C   0  0  0  0  0  0  0  0  0  0  0  0
    8.5109    3.5685   -0.0000 C   0  0  0  0  0  0  0  0  0  0  0  0
    5.1962    1.5000   -0.0000 C   0  0  0  0  0  0  0  0  0  0  0  0
    6.0622   -0.0000   -0.0000 C   0  0  0  0  0  0  0  0  0  0  0  0
    9.5109    1.8364   -0.0000 C   0  0  0  0  0  0  0  0  0  0  0  0
    9.5109    3.5685   -0.0000 C   0  0  0  0  0  0  0  0  0  0  0  0
    4.3301    1.0000   -0.0000 C   0  0  0  0  0  0  0  0  0  0  0  0
    5.1962   -0.5000   -0.0000 C   0  0  0  0  0  0  0  0  0  0  0  0
   10.0109    2.7024   -0.0000 C   0  0  0  0  0  0  0  0  0  0  0  0
    4.3301   -0.0000   -0.0000 C   0  0  0  0  0  0  0  0  0  0  0  0
    3.4641   -0.5000   -0.0000 C   0  0  0  0  0  0  0  0  0  0  0  0
    3.4641   -1.5000   -0.0000 O   0  0  0  0  0  0  0  0  0  0  0  0
    2.5981   -0.0000   -0.0000 N   0  0  0  0  0  0  0  0  0  0  0  0
    1.7321   -0.5000   -0.0000 N   0  0  0  0  0  0  0  0  0  0  0  0
    0.8660   -0.0000   -0.0000 C   0  0  0  0  0  0  0  0  0  0  0  0
    0.0000   -0.5000   -0.0000 C   0  0  0  0  0  0  0  0  0  0  0  0
   -0.8660    0.0000   -0.0000 C   0  0  0  0  0  0  0  0  0  0  0  0
   -0.0000   -1.5000   -0.0000 C   0  0  0  0  0  0  0  0  0  0  0  0
   -0.8660    1.0000   -0.0000 O   0  0  0  0  0  0  0  0  0  0  0  0
   -1.7321   -0.5000   -0.0000 C   0  0  0  0  0  0  0  0  0  0  0  0
    0.8660   -2.0000   -0.0000 O   0  0  0  0  0  0  0  0  0  0  0  0
   -0.8660   -2.0000   -0.0000 C   0  0  0  0  0  0  0  0  0  0  0  0
   -1.7321   -1.5000   -0.0000 C   0  0  0  0  0  0  0  0  0  0  0  0
   -2.5981   -2.0000   -0.0000 O   0  0  0  0  0  0  0  0  0  0  0  0
  1  2  1  0  0  0  0
  1  3  1  0  0  0  0
  2  4  2  0  0  0  0
  2  5  1  0  0  0  0
  3  6  2  0  0  0  0
  3  7  1  0  0  0  0
  5  8  2  0  0  0  0
  5  9  1  0  0  0  0
  6 10  1  0  0  0  0
  7 11  2  0  0  0  0
  8 12  1  0  0  0  0
  9 13  2  0  0  0  0
 10 14  2  0  0  0  0
 12 15  2  0  0  0  0
 15 16  1  0  0  0  0
 16 17  2  0  0  0  0
 16 18  1  0  0  0  0
 18 19  1  0  0  0  0
 19 20  2  0  0  0  0
 20 21  1  0  0  0  0
 21 22  2  0  0  0  0
 21 23  1  0  0  0  0
 22 24  1  0  0  0  0
 22 25  1  0  0  0  0
 23 26  1  0  0  0  0
 23 27  2  0  0  0  0
 25 28  2  0  0  0  0
 28 29  1  0  0  0  0
  4  6  1  0  0  0  0
 11 14  1  0  0  0  0
 13 15  1  0  0  0  0
 27 28  1  0  0  0  0
M  END
>  <S/N>
250

>  <Compound ID>
C_265

>  <PubChem CID>
136180344

>  <Isomeric SMILES>
C1=CC=C2C(=C1)N=C(S2)C3=CC=C(C=C3)C(=O)N/N=C/C4=C(C=C(C=C4O)O)O

>  <IC50 (�M)>
8.37

>  <pIC50>
5.08

$$$$
C_266
Actelion Java MolfileCreator 1.0

 18 20  0  0  0  0  0  0  0  0999 V2000
    2.5981    3.7500   -0.0000 Br  0  0  0  0  0  0  0  0  0  0  0  0
    2.5981    2.2500   -0.0000 C   0  0  0  0  0  0  0  0  0  0  0  0
    1.2990    1.5000   -0.0000 C   0  0  0  0  0  0  0  0  0  0  0  0
    3.8971    1.5000   -0.0000 C   0  0  0  0  0  0  0  0  0  0  0  0
    1.2990   -0.0000   -0.0000 C   0  0  0  0  0  0  0  0  0  0  0  0
    3.8971   -0.0000   -0.0000 C   0  0  0  0  0  0  0  0  0  0  0  0
    2.5981   -0.7500   -0.0000 C   0  0  0  0  0  0  0  0  0  0  0  0
    0.0000   -0.7500   -0.0000 C   0  0  0  0  0  0  0  0  0  0  0  0
    2.5981   -2.2500   -0.0000 O   0  0  0  0  0  0  0  0  0  0  0  0
   -1.3703   -0.1399   -0.0000 S   0  0  0  0  0  0  0  0  0  0  0  0
   -0.1568   -2.2418   -0.0000 N   0  0  0  0  0  0  0  0  0  0  0  0
   -2.3740   -1.2546   -0.0000 C   0  0  0  0  0  0  0  0  0  0  0  0
   -1.6240   -2.5537   -0.0000 C   0  0  0  0  0  0  0  0  0  0  0  0
   -3.8740   -1.2546   -0.0000 C   0  0  0  0  0  0  0  0  0  0  0  0
   -2.3740   -3.8527   -0.0000 C   0  0  0  0  0  0  0  0  0  0  0  0
   -4.6240   -2.5537   -0.0000 C   0  0  0  0  0  0  0  0  0  0  0  0
   -3.8740   -3.8527   -0.0000 C   0  0  0  0  0  0  0  0  0  0  0  0
   -4.6240   -5.1517   -0.0000 Cl  0  0  0  0  0  0  0  0  0  0  0  0
  1  2  1  0  0  0  0
  2  3  2  0  0  0  0
  2  4  1  0  0  0  0
  3  5  1  0  0  0  0
  4  6  2  0  0  0  0
  5  7  2  0  0  0  0
  5  8  1  0  0  0  0
  7  9  1  0  0  0  0
  8 10  1  0  0  0  0
  8 11  2  0  0  0  0
 10 12  1  0  0  0  0
 11 13  1  0  0  0  0
 12 14  2  0  0  0  0
 13 15  2  0  0  0  0
 14 16  1  0  0  0  0
 15 17  1  0  0  0  0
 17 18  1  0  0  0  0
  6  7  1  0  0  0  0
 12 13  1  0  0  0  0
 16 17  2  0  0  0  0
M  END
>  <S/N>
251

>  <Compound ID>
C_266

>  <PubChem CID>
136198571

>  <Isomeric SMILES>
C1=CC2=C(C=C1Cl)N=C(S2)C3=C(C=CC(=C3)Br)O

>  <IC50 (�M)>
22

>  <pIC50>
4.66

$$$$
C_267
Actelion Java MolfileCreator 1.0

 26 28  0  0  0  0  0  0  0  0999 V2000
    3.4641    1.5000   -0.0000 Cl  0  0  0  0  0  0  0  0  0  0  0  0
    4.3301    1.0000   -0.0000 C   0  0  0  0  0  0  0  0  0  0  0  0
    4.3301   -0.0000   -0.0000 C   0  0  0  0  0  0  0  0  0  0  0  0
    5.1962    1.5000   -0.0000 C   0  0  0  0  0  0  0  0  0  0  0  0
    5.1962   -0.5000   -0.0000 C   0  0  0  0  0  0  0  0  0  0  0  0
    3.4641   -0.5000   -0.0000 C   0  0  0  0  0  0  0  0  0  0  0  0
    6.0622    1.0000   -0.0000 C   0  0  0  0  0  0  0  0  0  0  0  0
    6.0622    0.0000   -0.0000 C   0  0  0  0  0  0  0  0  0  0  0  0
    2.5981   -0.0000   -0.0000 C   0  0  0  0  0  0  0  0  0  0  0  0
    6.9282    1.5000   -0.0000 Cl  0  0  0  0  0  0  0  0  0  0  0  0
    2.5981    1.0000   -0.0000 O   0  0  0  0  0  0  0  0  0  0  0  0
    1.7321   -0.5000   -0.0000 N   0  0  0  0  0  0  0  0  0  0  0  0
    0.8660   -0.0000   -0.0000 N   0  0  0  0  0  0  0  0  0  0  0  0
    0.0000   -0.5000   -0.0000 C   0  0  0  0  0  0  0  0  0  0  0  0
   -0.9135   -0.0933   -0.0000 C   0  0  0  0  0  0  0  0  0  0  0  0
   -0.1045   -1.4945   -0.0000 C   0  0  0  0  0  0  0  0  0  0  0  0
   -1.1215    0.8849   -0.0000 O   0  0  0  0  0  0  0  0  0  0  0  0
   -1.5827   -0.8364   -0.0000 N   0  0  0  0  0  0  0  0  0  0  0  0
   -1.0827   -1.7024   -0.0000 C   0  0  0  0  0  0  0  0  0  0  0  0
    0.5646   -2.2377   -0.0000 C   0  0  0  0  0  0  0  0  0  0  0  0
   -2.5772   -0.7319   -0.0000 C   0  0  0  0  0  0  0  0  0  0  0  0
   -1.3917   -2.6535   -0.0000 C   0  0  0  0  0  0  0  0  0  0  0  0
    0.2556   -3.1887   -0.0000 C   0  0  0  0  0  0  0  0  0  0  0  0
   -2.9839    0.1817   -0.0000 C   0  0  0  0  0  0  0  0  0  0  0  0
   -0.7226   -3.3966   -0.0000 C   0  0  0  0  0  0  0  0  0  0  0  0
   -3.9785    0.2862   -0.0000 C   0  0  0  0  0  0  0  0  0  0  0  0
  1  2  1  0  0  0  0
  2  3  2  0  0  0  0
  2  4  1  0  0  0  0
  3  5  1  0  0  0  0
  3  6  1  0  0  0  0
  4  7  2  0  0  0  0
  5  8  2  0  0  0  0
  6  9  1  0  0  0  0
  7 10  1  0  0  0  0
  9 11  2  0  0  0  0
  9 12  1  0  0  0  0
 12 13  2  3  0  0  0
 13 14  1  0  0  0  0
 14 15  2  0  0  0  0
 14 16  1  0  0  0  0
 15 17  1  0  0  0  0
 15 18  1  0  0  0  0
 16 19  2  0  0  0  0
 16 20  1  0  0  0  0
 18 21  1  0  0  0  0
 19 22  1  0  0  0  0
 20 23  2  0  0  0  0
 21 24  1  0  0  0  0
 22 25  2  0  0  0  0
 24 26  1  0  0  0  0
  7  8  1  0  0  0  0
 18 19  1  0  0  0  0
 23 25  1  0  0  0  0
M  END
>  <S/N>
252

>  <Compound ID>
C_267

>  <PubChem CID>
136661648

>  <Isomeric SMILES>
CCCN1C2=CC=CC=C2C(=C1O)N=NC(=O)CC3=C(C=C(C=C3)Cl)Cl

>  <IC50 (�M)>
2.2

>  <pIC50>
5.66

$$$$
C_268
Actelion Java MolfileCreator 1.0

 24 26  0  0  0  0  0  0  0  0999 V2000
    8.1781   -1.0305   -0.0000 Br  0  0  0  0  0  0  0  0  0  0  0  0
    7.2000   -0.8226   -0.0000 C   0  0  0  0  0  0  0  0  0  0  0  0
    6.8910    0.1285   -0.0000 C   0  0  0  0  0  0  0  0  0  0  0  0
    6.5308   -1.5657   -0.0000 C   0  0  0  0  0  0  0  0  0  0  0  0
    5.9128    0.3364   -0.0000 C   0  0  0  0  0  0  0  0  0  0  0  0
    5.5527   -1.3578   -0.0000 C   0  0  0  0  0  0  0  0  0  0  0  0
    5.4128    1.2024   -0.0000 N   0  0  0  0  0  0  0  0  0  0  0  0
    5.2437   -0.4067   -0.0000 C   0  0  0  0  0  0  0  0  0  0  0  0
    4.4347    0.9945   -0.0000 C   0  0  0  0  0  0  0  0  0  0  0  0
    4.3301   -0.0000   -0.0000 C   0  0  0  0  0  0  0  0  0  0  0  0
    3.6915    1.6637   -0.0000 O   0  0  0  0  0  0  0  0  0  0  0  0
    3.4641   -0.5000   -0.0000 N   0  0  0  0  0  0  0  0  0  0  0  0
    2.5981   -0.0000   -0.0000 N   0  0  0  0  0  0  0  0  0  0  0  0
    1.7321   -0.5000   -0.0000 C   0  0  0  0  0  0  0  0  0  0  0  0
    1.7321   -1.5000   -0.0000 O   0  0  0  0  0  0  0  0  0  0  0  0
    0.8660   -0.0000   -0.0000 C   0  0  0  0  0  0  0  0  0  0  0  0
    0.0000   -0.5000   -0.0000 C   0  0  0  0  0  0  0  0  0  0  0  0
   -0.8660    0.0000   -0.0000 C   0  0  0  0  0  0  0  0  0  0  0  0
   -0.0000   -1.5000   -0.0000 C   0  0  0  0  0  0  0  0  0  0  0  0
   -1.7321   -0.5000   -0.0000 C   0  0  0  0  0  0  0  0  0  0  0  0
   -0.8660   -2.0000   -0.0000 C   0  0  0  0  0  0  0  0  0  0  0  0
   -2.5981    0.0000   -0.0000 Cl  0  0  0  0  0  0  0  0  0  0  0  0
   -1.7321   -1.5000   -0.0000 C   0  0  0  0  0  0  0  0  0  0  0  0
   -2.5981   -2.0000   -0.0000 Cl  0  0  0  0  0  0  0  0  0  0  0  0
  1  2  1  0  0  0  0
  2  3  2  0  0  0  0
  2  4  1  0  0  0  0
  3  5  1  0  0  0  0
  4  6  2  0  0  0  0
  5  7  1  0  0  0  0
  5  8  2  0  0  0  0
  7  9  1  0  0  0  0
  8 10  1  0  0  0  0
  9 11  1  0  0  0  0
 10 12  1  0  0  0  0
 12 13  2  3  0  0  0
 13 14  1  0  0  0  0
 14 15  2  0  0  0  0
 14 16  1  0  0  0  0
 16 17  1  0  0  0  0
 17 18  2  0  0  0  0
 17 19  1  0  0  0  0
 18 20  1  0  0  0  0
 19 21  2  0  0  0  0
 20 22  1  0  0  0  0
 20 23  2  0  0  0  0
 23 24  1  0  0  0  0
  6  8  1  0  0  0  0
  9 10  2  0  0  0  0
 21 23  1  0  0  0  0
M  END
>  <S/N>
253

>  <Compound ID>
C_268

>  <PubChem CID>
136661649

>  <Isomeric SMILES>
C1=CC(=C(C=C1CC(=O)N=NC2=C(NC3=C2C=CC(=C3)Br)O)Cl)Cl

>  <IC50 (�M)>
2.2

>  <pIC50>
5.66

$$$$
C_269
Actelion Java MolfileCreator 1.0

 24 26  0  0  0  0  0  0  0  0999 V2000
    8.1781   -1.0305   -0.0000 Br  0  0  0  0  0  0  0  0  0  0  0  0
    7.2000   -0.8226   -0.0000 C   0  0  0  0  0  0  0  0  0  0  0  0
    6.8910    0.1285   -0.0000 C   0  0  0  0  0  0  0  0  0  0  0  0
    6.5308   -1.5657   -0.0000 C   0  0  0  0  0  0  0  0  0  0  0  0
    5.9128    0.3364   -0.0000 C   0  0  0  0  0  0  0  0  0  0  0  0
    5.5527   -1.3578   -0.0000 C   0  0  0  0  0  0  0  0  0  0  0  0
    5.4128    1.2024   -0.0000 N   0  0  0  0  0  0  0  0  0  0  0  0
    5.2437   -0.4067   -0.0000 C   0  0  0  0  0  0  0  0  0  0  0  0
    4.4347    0.9945   -0.0000 C   0  0  0  0  0  0  0  0  0  0  0  0
    4.3301   -0.0000   -0.0000 C   0  0  0  0  0  0  0  0  0  0  0  0
    3.6915    1.6637   -0.0000 O   0  0  0  0  0  0  0  0  0  0  0  0
    3.4641   -0.5000   -0.0000 N   0  0  0  0  0  0  0  0  0  0  0  0
    2.5981   -0.0000   -0.0000 N   0  0  0  0  0  0  0  0  0  0  0  0
    1.7321   -0.5000   -0.0000 C   0  0  0  0  0  0  0  0  0  0  0  0
    1.7321   -1.5000   -0.0000 O   0  0  0  0  0  0  0  0  0  0  0  0
    0.8660   -0.0000   -0.0000 C   0  0  0  0  0  0  0  0  0  0  0  0
    0.0000   -0.5000   -0.0000 C   0  0  0  0  0  0  0  0  0  0  0  0
   -0.8660    0.0000   -0.0000 C   0  0  0  0  0  0  0  0  0  0  0  0
   -0.0000   -1.5000   -0.0000 C   0  0  0  0  0  0  0  0  0  0  0  0
   -0.8660    1.0000   -0.0000 Cl  0  0  0  0  0  0  0  0  0  0  0  0
   -1.7321   -0.5000   -0.0000 C   0  0  0  0  0  0  0  0  0  0  0  0
   -0.8660   -2.0000   -0.0000 C   0  0  0  0  0  0  0  0  0  0  0  0
   -1.7321   -1.5000   -0.0000 C   0  0  0  0  0  0  0  0  0  0  0  0
   -2.5981   -2.0000   -0.0000 Cl  0  0  0  0  0  0  0  0  0  0  0  0
  1  2  1  0  0  0  0
  2  3  2  0  0  0  0
  2  4  1  0  0  0  0
  3  5  1  0  0  0  0
  4  6  2  0  0  0  0
  5  7  1  0  0  0  0
  5  8  2  0  0  0  0
  7  9  1  0  0  0  0
  8 10  1  0  0  0  0
  9 11  1  0  0  0  0
 10 12  1  0  0  0  0
 12 13  2  3  0  0  0
 13 14  1  0  0  0  0
 14 15  2  0  0  0  0
 14 16  1  0  0  0  0
 16 17  1  0  0  0  0
 17 18  2  0  0  0  0
 17 19  1  0  0  0  0
 18 20  1  0  0  0  0
 18 21  1  0  0  0  0
 19 22  2  0  0  0  0
 21 23  2  0  0  0  0
 23 24  1  0  0  0  0
  6  8  1  0  0  0  0
  9 10  2  0  0  0  0
 22 23  1  0  0  0  0
M  END
>  <S/N>
254

>  <Compound ID>
C_269

>  <PubChem CID>
136661650

>  <Isomeric SMILES>
C1=CC(=C(C=C1Cl)Cl)CC(=O)N=NC2=C(NC3=C2C=CC(=C3)Br)O

>  <IC50 (�M)>
2.2

>  <pIC50>
5.66

$$$$
C_270
Actelion Java MolfileCreator 1.0

 22 24  0  0  0  0  0  0  0  0999 V2000
    6.7435   -6.5215   -0.0000 Br  0  0  0  0  0  0  0  0  0  0  0  0
    6.2800   -5.0950   -0.0000 C   0  0  0  0  0  0  0  0  0  0  0  0
    7.2837   -3.9802   -0.0000 C   0  0  0  0  0  0  0  0  0  0  0  0
    4.8128   -4.7831   -0.0000 C   0  0  0  0  0  0  0  0  0  0  0  0
    6.8202   -2.5537   -0.0000 C   0  0  0  0  0  0  0  0  0  0  0  0
    4.3492   -3.3565   -0.0000 C   0  0  0  0  0  0  0  0  0  0  0  0
    7.5702   -1.2546   -0.0000 N   0  0  0  0  0  0  0  0  0  0  0  0
    5.3529   -2.2418   -0.0000 C   0  0  0  0  0  0  0  0  0  0  0  0
    6.5665   -0.1399   -0.0000 C   0  0  0  0  0  0  0  0  0  0  0  0
    5.1962   -0.7500   -0.0000 C   0  0  0  0  0  0  0  0  0  0  0  0
    6.8783    1.3273   -0.0000 O   0  0  0  0  0  0  0  0  0  0  0  0
    3.8971   -0.0000   -0.0000 N   0  0  0  0  0  0  0  0  0  0  0  0
    2.5981   -0.7500   -0.0000 N   0  0  0  0  0  0  0  0  0  0  0  0
    1.2990   -0.0000   -0.0000 C   0  0  0  0  0  0  0  0  0  0  0  0
    1.2990    1.5000   -0.0000 O   0  0  0  0  0  0  0  0  0  0  0  0
    0.0000   -0.7500   -0.0000 C   0  0  0  0  0  0  0  0  0  0  0  0
   -1.2990    0.0000   -0.0000 C   0  0  0  0  0  0  0  0  0  0  0  0
   -0.0000   -2.2500   -0.0000 C   0  0  0  0  0  0  0  0  0  0  0  0
   -1.2990    1.5000   -0.0000 O   0  0  0  0  0  0  0  0  0  0  0  0
   -2.5981   -0.7500   -0.0000 C   0  0  0  0  0  0  0  0  0  0  0  0
   -1.2990   -3.0000   -0.0000 C   0  0  0  0  0  0  0  0  0  0  0  0
   -2.5981   -2.2500   -0.0000 C   0  0  0  0  0  0  0  0  0  0  0  0
  1  2  1  0  0  0  0
  2  3  2  0  0  0  0
  2  4  1  0  0  0  0
  3  5  1  0  0  0  0
  4  6  2  0  0  0  0
  5  7  1  0  0  0  0
  5  8  2  0  0  0  0
  7  9  1  0  0  0  0
  8 10  1  0  0  0  0
  9 11  1  0  0  0  0
 10 12  1  0  0  0  0
 12 13  2  3  0  0  0
 13 14  1  0  0  0  0
 14 15  2  0  0  0  0
 14 16  1  0  0  0  0
 16 17  2  0  0  0  0
 16 18  1  0  0  0  0
 17 19  1  0  0  0  0
 17 20  1  0  0  0  0
 18 21  2  0  0  0  0
 20 22  2  0  0  0  0
  6  8  1  0  0  0  0
  9 10  2  0  0  0  0
 21 22  1  0  0  0  0
M  END
>  <S/N>
255

>  <Compound ID>
C_270

>  <PubChem CID>
136661651

>  <Isomeric SMILES>
C1=CC=C(C(=C1)C(=O)N=NC2=C(NC3=C2C=CC(=C3)Br)O)O

>  <IC50 (�M)>
2.2

>  <pIC50>
5.66

$$$$
C_271
Actelion Java MolfileCreator 1.0

 18 20  0  0  0  0  0  0  0  0999 V2000
    5.1962   -0.7500   -0.0000 O   0  0  0  0  0  0  0  0  0  0  0  0
    3.8971   -0.0000   -0.0000 C   0  0  0  0  0  0  0  0  0  0  0  0
    3.8971    1.5000   -0.0000 C   0  0  0  0  0  0  0  0  0  0  0  0
    2.5981   -0.7500   -0.0000 C   0  0  0  0  0  0  0  0  0  0  0  0
    5.1962    2.2500   -0.0000 O   0  0  0  0  0  0  0  0  0  0  0  0
    2.5981    2.2500   -0.0000 C   0  0  0  0  0  0  0  0  0  0  0  0
    1.2990   -0.0000   -0.0000 C   0  0  0  0  0  0  0  0  0  0  0  0
    1.2990    1.5000   -0.0000 C   0  0  0  0  0  0  0  0  0  0  0  0
    0.0000   -0.7500   -0.0000 C   0  0  0  0  0  0  0  0  0  0  0  0
   -1.3703   -0.1399   -0.0000 N   0  0  0  0  0  0  0  0  0  0  0  0
   -0.1568   -2.2418   -0.0000 N   0  0  0  0  0  0  0  0  0  0  0  0
   -2.3740   -1.2546   -0.0000 C   0  0  0  0  0  0  0  0  0  0  0  0
   -1.6240   -2.5537   -0.0000 C   0  0  0  0  0  0  0  0  0  0  0  0
   -3.8740   -1.2546   -0.0000 C   0  0  0  0  0  0  0  0  0  0  0  0
   -2.3740   -3.8527   -0.0000 C   0  0  0  0  0  0  0  0  0  0  0  0
   -4.6240   -2.5537   -0.0000 C   0  0  0  0  0  0  0  0  0  0  0  0
   -4.6240    0.0444   -0.0000 C   0  0  0  0  0  0  0  0  0  0  0  0
   -3.8740   -3.8527   -0.0000 C   0  0  0  0  0  0  0  0  0  0  0  0
  1  2  1  0  0  0  0
  2  3  2  0  0  0  0
  2  4  1  0  0  0  0
  3  5  1  0  0  0  0
  3  6  1  0  0  0  0
  4  7  2  0  0  0  0
  6  8  2  0  0  0  0
  7  9  1  0  0  0  0
  9 10  2  0  0  0  0
  9 11  1  0  0  0  0
 10 12  1  0  0  0  0
 11 13  1  0  0  0  0
 12 14  2  0  0  0  0
 13 15  2  0  0  0  0
 14 16  1  0  0  0  0
 14 17  1  0  0  0  0
 15 18  1  0  0  0  0
  7  8  1  0  0  0  0
 12 13  1  0  0  0  0
 16 18  2  0  0  0  0
M  END
>  <S/N>
256

>  <Compound ID>
C_271

>  <PubChem CID>
136706650

>  <Isomeric SMILES>
CC1=C2C(=CC=C1)NC(=N2)C3=CC(=C(C=C3)O)O

>  <IC50 (�M)>
5.3

>  <pIC50>
5.28

$$$$
C_272
Actelion Java MolfileCreator 1.0

 18 20  0  0  0  0  0  0  0  0999 V2000
    0.0000    2.2500   -0.0000 O   0  0  0  0  0  0  0  0  0  0  0  0
    1.2990    1.5000   -0.0000 C   0  0  0  0  0  0  0  0  0  0  0  0
    1.2990   -0.0000   -0.0000 C   0  0  0  0  0  0  0  0  0  0  0  0
    2.5981    2.2500   -0.0000 C   0  0  0  0  0  0  0  0  0  0  0  0
    0.0000   -0.7500   -0.0000 C   0  0  0  0  0  0  0  0  0  0  0  0
    2.5981   -0.7500   -0.0000 C   0  0  0  0  0  0  0  0  0  0  0  0
    3.8971    1.5000   -0.0000 C   0  0  0  0  0  0  0  0  0  0  0  0
   -1.3703   -0.1399   -0.0000 N   0  0  0  0  0  0  0  0  0  0  0  0
   -0.1568   -2.2418   -0.0000 N   0  0  0  0  0  0  0  0  0  0  0  0
    3.8971   -0.0000   -0.0000 C   0  0  0  0  0  0  0  0  0  0  0  0
    5.1962    2.2500   -0.0000 O   0  0  0  0  0  0  0  0  0  0  0  0
   -2.3740   -1.2546   -0.0000 C   0  0  0  0  0  0  0  0  0  0  0  0
   -1.6240   -2.5537   -0.0000 C   0  0  0  0  0  0  0  0  0  0  0  0
   -3.8740   -1.2546   -0.0000 C   0  0  0  0  0  0  0  0  0  0  0  0
   -2.3740   -3.8527   -0.0000 C   0  0  0  0  0  0  0  0  0  0  0  0
   -4.6240   -2.5537   -0.0000 C   0  0  0  0  0  0  0  0  0  0  0  0
   -4.6240    0.0444   -0.0000 C   0  0  0  0  0  0  0  0  0  0  0  0
   -3.8740   -3.8527   -0.0000 C   0  0  0  0  0  0  0  0  0  0  0  0
  1  2  1  0  0  0  0
  2  3  2  0  0  0  0
  2  4  1  0  0  0  0
  3  5  1  0  0  0  0
  3  6  1  0  0  0  0
  4  7  2  0  0  0  0
  5  8  2  0  0  0  0
  5  9  1  0  0  0  0
  6 10  2  0  0  0  0
  7 11  1  0  0  0  0
  8 12  1  0  0  0  0
  9 13  1  0  0  0  0
 12 14  2  0  0  0  0
 13 15  2  0  0  0  0
 14 16  1  0  0  0  0
 14 17  1  0  0  0  0
 15 18  1  0  0  0  0
  7 10  1  0  0  0  0
 12 13  1  0  0  0  0
 16 18  2  0  0  0  0
M  END
>  <S/N>
257

>  <Compound ID>
C_272

>  <PubChem CID>
136903786

>  <Isomeric SMILES>
CC1=C2C(=CC=C1)NC(=N2)C3=C(C=C(C=C3)O)O

>  <IC50 (�M)>
5.3

>  <pIC50>
5.28

$$$$
C_273
Actelion Java MolfileCreator 1.0

 18 20  0  0  0  0  0  0  0  0999 V2000
    0.0000    2.2500   -0.0000 O   0  0  0  0  0  0  0  0  0  0  0  0
    1.2990    1.5000   -0.0000 C   0  0  0  0  0  0  0  0  0  0  0  0
    1.2990   -0.0000   -0.0000 C   0  0  0  0  0  0  0  0  0  0  0  0
    2.5981    2.2500   -0.0000 C   0  0  0  0  0  0  0  0  0  0  0  0
    0.0000   -0.7500   -0.0000 C   0  0  0  0  0  0  0  0  0  0  0  0
    2.5981   -0.7500   -0.0000 C   0  0  0  0  0  0  0  0  0  0  0  0
    3.8971    1.5000   -0.0000 C   0  0  0  0  0  0  0  0  0  0  0  0
   -1.3703   -0.1399   -0.0000 N   0  0  0  0  0  0  0  0  0  0  0  0
   -0.1568   -2.2418   -0.0000 N   0  0  0  0  0  0  0  0  0  0  0  0
    3.8971   -0.0000   -0.0000 C   0  0  0  0  0  0  0  0  0  0  0  0
   -2.3740   -1.2546   -0.0000 C   0  0  0  0  0  0  0  0  0  0  0  0
   -1.6240   -2.5537   -0.0000 C   0  0  0  0  0  0  0  0  0  0  0  0
    5.1962   -0.7500   -0.0000 O   0  0  0  0  0  0  0  0  0  0  0  0
   -3.8740   -1.2546   -0.0000 C   0  0  0  0  0  0  0  0  0  0  0  0
   -2.3740   -3.8527   -0.0000 C   0  0  0  0  0  0  0  0  0  0  0  0
   -4.6240   -2.5537   -0.0000 C   0  0  0  0  0  0  0  0  0  0  0  0
   -4.6240    0.0444   -0.0000 C   0  0  0  0  0  0  0  0  0  0  0  0
   -3.8740   -3.8527   -0.0000 C   0  0  0  0  0  0  0  0  0  0  0  0
  1  2  1  0  0  0  0
  2  3  2  0  0  0  0
  2  4  1  0  0  0  0
  3  5  1  0  0  0  0
  3  6  1  0  0  0  0
  4  7  2  0  0  0  0
  5  8  2  0  0  0  0
  5  9  1  0  0  0  0
  6 10  2  0  0  0  0
  8 11  1  0  0  0  0
  9 12  1  0  0  0  0
 10 13  1  0  0  0  0
 11 14  2  0  0  0  0
 12 15  2  0  0  0  0
 14 16  1  0  0  0  0
 14 17  1  0  0  0  0
 15 18  1  0  0  0  0
  7 10  1  0  0  0  0
 11 12  1  0  0  0  0
 16 18  2  0  0  0  0
M  END
>  <S/N>
258

>  <Compound ID>
C_273

>  <PubChem CID>
136927555

>  <Isomeric SMILES>
CC1=C2C(=CC=C1)NC(=N2)C3=C(C=CC(=C3)O)O

>  <IC50 (�M)>
5.3

>  <pIC50>
5.28

$$$$
C_274
Actelion Java MolfileCreator 1.0

 29 32  0  0  0  0  0  0  0  0999 V2000
    7.0327    2.4945   -0.0000 S   0  0  0  0  0  0  0  0  0  0  0  0
    6.9282    1.5000   -0.0000 C   0  0  0  0  0  0  0  0  0  0  0  0
    8.0109    2.7024   -0.0000 C   0  0  0  0  0  0  0  0  0  0  0  0
    7.8417    1.0933   -0.0000 N   0  0  0  0  0  0  0  0  0  0  0  0
    6.0622    1.0000   -0.0000 C   0  0  0  0  0  0  0  0  0  0  0  0
    8.5109    1.8364   -0.0000 C   0  0  0  0  0  0  0  0  0  0  0  0
    8.5109    3.5685   -0.0000 C   0  0  0  0  0  0  0  0  0  0  0  0
    5.1962    1.5000   -0.0000 C   0  0  0  0  0  0  0  0  0  0  0  0
    6.0622   -0.0000   -0.0000 C   0  0  0  0  0  0  0  0  0  0  0  0
    9.5109    1.8364   -0.0000 C   0  0  0  0  0  0  0  0  0  0  0  0
    9.5109    3.5685   -0.0000 C   0  0  0  0  0  0  0  0  0  0  0  0
    4.3301    1.0000   -0.0000 C   0  0  0  0  0  0  0  0  0  0  0  0
    5.1962   -0.5000   -0.0000 C   0  0  0  0  0  0  0  0  0  0  0  0
   10.0109    2.7024   -0.0000 C   0  0  0  0  0  0  0  0  0  0  0  0
    4.3301   -0.0000   -0.0000 C   0  0  0  0  0  0  0  0  0  0  0  0
    3.4641   -0.5000   -0.0000 C   0  0  0  0  0  0  0  0  0  0  0  0
    3.4641   -1.5000   -0.0000 O   0  0  0  0  0  0  0  0  0  0  0  0
    2.5981   -0.0000   -0.0000 N   0  0  0  0  0  0  0  0  0  0  0  0
    1.7321   -0.5000   -0.0000 N   0  0  0  0  0  0  0  0  0  0  0  0
    0.8660   -0.0000   -0.0000 C   0  0  0  0  0  0  0  0  0  0  0  0
    0.0000   -0.5000   -0.0000 C   0  0  0  0  0  0  0  0  0  0  0  0
   -0.8660    0.0000   -0.0000 C   0  0  0  0  0  0  0  0  0  0  0  0
   -0.0000   -1.5000   -0.0000 C   0  0  0  0  0  0  0  0  0  0  0  0
   -0.8660    1.0000   -0.0000 O   0  0  0  0  0  0  0  0  0  0  0  0
   -1.7321   -0.5000   -0.0000 C   0  0  0  0  0  0  0  0  0  0  0  0
   -0.8660   -2.0000   -0.0000 C   0  0  0  0  0  0  0  0  0  0  0  0
   -1.7321   -1.5000   -0.0000 C   0  0  0  0  0  0  0  0  0  0  0  0
   -0.8660   -3.0000   -0.0000 O   0  0  0  0  0  0  0  0  0  0  0  0
   -0.0000   -3.5000   -0.0000 C   0  0  0  0  0  0  0  0  0  0  0  0
  1  2  1  0  0  0  0
  1  3  1  0  0  0  0
  2  4  2  0  0  0  0
  2  5  1  0  0  0  0
  3  6  2  0  0  0  0
  3  7  1  0  0  0  0
  5  8  2  0  0  0  0
  5  9  1  0  0  0  0
  6 10  1  0  0  0  0
  7 11  2  0  0  0  0
  8 12  1  0  0  0  0
  9 13  2  0  0  0  0
 10 14  2  0  0  0  0
 12 15  2  0  0  0  0
 15 16  1  0  0  0  0
 16 17  2  0  0  0  0
 16 18  1  0  0  0  0
 18 19  1  0  0  0  0
 19 20  2  0  0  0  0
 20 21  1  0  0  0  0
 21 22  2  0  0  0  0
 21 23  1  0  0  0  0
 22 24  1  0  0  0  0
 22 25  1  0  0  0  0
 23 26  2  0  0  0  0
 25 27  2  0  0  0  0
 26 28  1  0  0  0  0
 28 29  1  0  0  0  0
  4  6  1  0  0  0  0
 11 14  1  0  0  0  0
 13 15  1  0  0  0  0
 26 27  1  0  0  0  0
M  END
>  <S/N>
259

>  <Compound ID>
C_274

>  <PubChem CID>
136961465

>  <Isomeric SMILES>
COC1=CC(=C(C=C1)O)/C=N/NC(=O)C2=CC=C(C=C2)C3=NC4=CC=CC=C4S3

>  <IC50 (�M)>
6.5

>  <pIC50>
5.19

$$$$
C_275
Actelion Java MolfileCreator 1.0

 27 30  0  0  0  0  0  0  0  0999 V2000
    7.0327    2.4945   -0.0000 S   0  0  0  0  0  0  0  0  0  0  0  0
    6.9282    1.5000   -0.0000 C   0  0  0  0  0  0  0  0  0  0  0  0
    8.0109    2.7024   -0.0000 C   0  0  0  0  0  0  0  0  0  0  0  0
    7.8417    1.0933   -0.0000 N   0  0  0  0  0  0  0  0  0  0  0  0
    6.0622    1.0000   -0.0000 C   0  0  0  0  0  0  0  0  0  0  0  0
    8.5109    1.8364   -0.0000 C   0  0  0  0  0  0  0  0  0  0  0  0
    8.5109    3.5685   -0.0000 C   0  0  0  0  0  0  0  0  0  0  0  0
    5.1962    1.5000   -0.0000 C   0  0  0  0  0  0  0  0  0  0  0  0
    6.0622   -0.0000   -0.0000 C   0  0  0  0  0  0  0  0  0  0  0  0
    9.5109    1.8364   -0.0000 C   0  0  0  0  0  0  0  0  0  0  0  0
    9.5109    3.5685   -0.0000 C   0  0  0  0  0  0  0  0  0  0  0  0
    4.3301    1.0000   -0.0000 C   0  0  0  0  0  0  0  0  0  0  0  0
    5.1962   -0.5000   -0.0000 C   0  0  0  0  0  0  0  0  0  0  0  0
   10.0109    2.7024   -0.0000 C   0  0  0  0  0  0  0  0  0  0  0  0
    4.3301   -0.0000   -0.0000 C   0  0  0  0  0  0  0  0  0  0  0  0
    3.4641   -0.5000   -0.0000 C   0  0  0  0  0  0  0  0  0  0  0  0
    3.4641   -1.5000   -0.0000 O   0  0  0  0  0  0  0  0  0  0  0  0
    2.5981   -0.0000   -0.0000 N   0  0  0  0  0  0  0  0  0  0  0  0
    1.7321   -0.5000   -0.0000 N   0  0  0  0  0  0  0  0  0  0  0  0
    0.8660   -0.0000   -0.0000 C   0  0  0  0  0  0  0  0  0  0  0  0
    0.0000   -0.5000   -0.0000 C   0  0  0  0  0  0  0  0  0  0  0  0
   -0.8660    0.0000   -0.0000 C   0  0  0  0  0  0  0  0  0  0  0  0
   -0.0000   -1.5000   -0.0000 C   0  0  0  0  0  0  0  0  0  0  0  0
   -1.7321   -0.5000   -0.0000 C   0  0  0  0  0  0  0  0  0  0  0  0
   -0.8660   -2.0000   -0.0000 C   0  0  0  0  0  0  0  0  0  0  0  0
   -1.7321   -1.5000   -0.0000 C   0  0  0  0  0  0  0  0  0  0  0  0
   -2.5981   -2.0000   -0.0000 O   0  0  0  0  0  0  0  0  0  0  0  0
  1  2  1  0  0  0  0
  1  3  1  0  0  0  0
  2  4  2  0  0  0  0
  2  5  1  0  0  0  0
  3  6  2  0  0  0  0
  3  7  1  0  0  0  0
  5  8  2  0  0  0  0
  5  9  1  0  0  0  0
  6 10  1  0  0  0  0
  7 11  2  0  0  0  0
  8 12  1  0  0  0  0
  9 13  2  0  0  0  0
 10 14  2  0  0  0  0
 12 15  2  0  0  0  0
 15 16  1  0  0  0  0
 16 17  2  0  0  0  0
 16 18  1  0  0  0  0
 18 19  1  0  0  0  0
 19 20  2  0  0  0  0
 20 21  1  0  0  0  0
 21 22  2  0  0  0  0
 21 23  1  0  0  0  0
 22 24  1  0  0  0  0
 23 25  2  0  0  0  0
 24 26  2  0  0  0  0
 26 27  1  0  0  0  0
  4  6  1  0  0  0  0
 11 14  1  0  0  0  0
 13 15  1  0  0  0  0
 25 26  1  0  0  0  0
M  END
>  <S/N>
260

>  <Compound ID>
C_275

>  <PubChem CID>
136961466

>  <Isomeric SMILES>
C1=CC=C2C(=C1)N=C(S2)C3=CC=C(C=C3)C(=O)N/N=C/C4=CC=C(C=C4)O

>  <IC50 (�M)>
11.29

>  <pIC50>
4.95

$$$$
C_276
Actelion Java MolfileCreator 1.0

 28 31  0  0  0  0  0  0  0  0999 V2000
    7.0327    2.4945   -0.0000 S   0  0  0  0  0  0  0  0  0  0  0  0
    6.9282    1.5000   -0.0000 C   0  0  0  0  0  0  0  0  0  0  0  0
    8.0109    2.7024   -0.0000 C   0  0  0  0  0  0  0  0  0  0  0  0
    7.8417    1.0933   -0.0000 N   0  0  0  0  0  0  0  0  0  0  0  0
    6.0622    1.0000   -0.0000 C   0  0  0  0  0  0  0  0  0  0  0  0
    8.5109    1.8364   -0.0000 C   0  0  0  0  0  0  0  0  0  0  0  0
    8.5109    3.5685   -0.0000 C   0  0  0  0  0  0  0  0  0  0  0  0
    5.1962    1.5000   -0.0000 C   0  0  0  0  0  0  0  0  0  0  0  0
    6.0622   -0.0000   -0.0000 C   0  0  0  0  0  0  0  0  0  0  0  0
    9.5109    1.8364   -0.0000 C   0  0  0  0  0  0  0  0  0  0  0  0
    9.5109    3.5685   -0.0000 C   0  0  0  0  0  0  0  0  0  0  0  0
    4.3301    1.0000   -0.0000 C   0  0  0  0  0  0  0  0  0  0  0  0
    5.1962   -0.5000   -0.0000 C   0  0  0  0  0  0  0  0  0  0  0  0
   10.0109    2.7024   -0.0000 C   0  0  0  0  0  0  0  0  0  0  0  0
    4.3301   -0.0000   -0.0000 C   0  0  0  0  0  0  0  0  0  0  0  0
    3.4641   -0.5000   -0.0000 C   0  0  0  0  0  0  0  0  0  0  0  0
    3.4641   -1.5000   -0.0000 O   0  0  0  0  0  0  0  0  0  0  0  0
    2.5981   -0.0000   -0.0000 N   0  0  0  0  0  0  0  0  0  0  0  0
    1.7321   -0.5000   -0.0000 N   0  0  0  0  0  0  0  0  0  0  0  0
    0.8660   -0.0000   -0.0000 C   0  0  0  0  0  0  0  0  0  0  0  0
    0.0000   -0.5000   -0.0000 C   0  0  0  0  0  0  0  0  0  0  0  0
   -0.8660    0.0000   -0.0000 C   0  0  0  0  0  0  0  0  0  0  0  0
   -0.0000   -1.5000   -0.0000 C   0  0  0  0  0  0  0  0  0  0  0  0
   -0.8660    1.0000   -0.0000 O   0  0  0  0  0  0  0  0  0  0  0  0
   -1.7321   -0.5000   -0.0000 C   0  0  0  0  0  0  0  0  0  0  0  0
   -0.8660   -2.0000   -0.0000 C   0  0  0  0  0  0  0  0  0  0  0  0
   -2.5981    0.0000   -0.0000 O   0  0  0  0  0  0  0  0  0  0  0  0
   -1.7321   -1.5000   -0.0000 C   0  0  0  0  0  0  0  0  0  0  0  0
  1  2  1  0  0  0  0
  1  3  1  0  0  0  0
  2  4  2  0  0  0  0
  2  5  1  0  0  0  0
  3  6  2  0  0  0  0
  3  7  1  0  0  0  0
  5  8  2  0  0  0  0
  5  9  1  0  0  0  0
  6 10  1  0  0  0  0
  7 11  2  0  0  0  0
  8 12  1  0  0  0  0
  9 13  2  0  0  0  0
 10 14  2  0  0  0  0
 12 15  2  0  0  0  0
 15 16  1  0  0  0  0
 16 17  2  0  0  0  0
 16 18  1  0  0  0  0
 18 19  1  0  0  0  0
 19 20  2  0  0  0  0
 20 21  1  0  0  0  0
 21 22  2  0  0  0  0
 21 23  1  0  0  0  0
 22 24  1  0  0  0  0
 22 25  1  0  0  0  0
 23 26  2  0  0  0  0
 25 27  1  0  0  0  0
 25 28  2  0  0  0  0
  4  6  1  0  0  0  0
 11 14  1  0  0  0  0
 13 15  1  0  0  0  0
 26 28  1  0  0  0  0
M  END
>  <S/N>
261

>  <Compound ID>
C_276

>  <PubChem CID>
136961467

>  <Isomeric SMILES>
C1=CC=C2C(=C1)N=C(S2)C3=CC=C(C=C3)C(=O)N/N=C/C4=C(C(=CC=C4)O)O

>  <IC50 (�M)>
11.22

>  <pIC50>
4.95

$$$$
C_277
Actelion Java MolfileCreator 1.0

 29 32  0  0  0  0  0  0  0  0999 V2000
    7.0327    2.4945   -0.0000 S   0  0  0  0  0  0  0  0  0  0  0  0
    6.9282    1.5000   -0.0000 C   0  0  0  0  0  0  0  0  0  0  0  0
    8.0109    2.7024   -0.0000 C   0  0  0  0  0  0  0  0  0  0  0  0
    7.8417    1.0933   -0.0000 N   0  0  0  0  0  0  0  0  0  0  0  0
    6.0622    1.0000   -0.0000 C   0  0  0  0  0  0  0  0  0  0  0  0
    8.5109    1.8364   -0.0000 C   0  0  0  0  0  0  0  0  0  0  0  0
    8.5109    3.5685   -0.0000 C   0  0  0  0  0  0  0  0  0  0  0  0
    5.1962    1.5000   -0.0000 C   0  0  0  0  0  0  0  0  0  0  0  0
    6.0622   -0.0000   -0.0000 C   0  0  0  0  0  0  0  0  0  0  0  0
    9.5109    1.8364   -0.0000 C   0  0  0  0  0  0  0  0  0  0  0  0
    9.5109    3.5685   -0.0000 C   0  0  0  0  0  0  0  0  0  0  0  0
    4.3301    1.0000   -0.0000 C   0  0  0  0  0  0  0  0  0  0  0  0
    5.1962   -0.5000   -0.0000 C   0  0  0  0  0  0  0  0  0  0  0  0
   10.0109    2.7024   -0.0000 C   0  0  0  0  0  0  0  0  0  0  0  0
    4.3301   -0.0000   -0.0000 C   0  0  0  0  0  0  0  0  0  0  0  0
    3.4641   -0.5000   -0.0000 C   0  0  0  0  0  0  0  0  0  0  0  0
    3.4641   -1.5000   -0.0000 O   0  0  0  0  0  0  0  0  0  0  0  0
    2.5981   -0.0000   -0.0000 N   0  0  0  0  0  0  0  0  0  0  0  0
    1.7321   -0.5000   -0.0000 N   0  0  0  0  0  0  0  0  0  0  0  0
    0.8660   -0.0000   -0.0000 C   0  0  0  0  0  0  0  0  0  0  0  0
    0.0000   -0.5000   -0.0000 C   0  0  0  0  0  0  0  0  0  0  0  0
   -0.8660    0.0000   -0.0000 C   0  0  0  0  0  0  0  0  0  0  0  0
   -0.0000   -1.5000   -0.0000 C   0  0  0  0  0  0  0  0  0  0  0  0
   -0.8660    1.0000   -0.0000 O   0  0  0  0  0  0  0  0  0  0  0  0
   -1.7321   -0.5000   -0.0000 C   0  0  0  0  0  0  0  0  0  0  0  0
   -0.8660   -2.0000   -0.0000 C   0  0  0  0  0  0  0  0  0  0  0  0
   -1.7321   -1.5000   -0.0000 C   0  0  0  0  0  0  0  0  0  0  0  0
   -2.5981   -2.0000   -0.0000 O   0  0  0  0  0  0  0  0  0  0  0  0
   -2.5981   -3.0000   -0.0000 C   0  0  0  0  0  0  0  0  0  0  0  0
  1  2  1  0  0  0  0
  1  3  1  0  0  0  0
  2  4  2  0  0  0  0
  2  5  1  0  0  0  0
  3  6  2  0  0  0  0
  3  7  1  0  0  0  0
  5  8  2  0  0  0  0
  5  9  1  0  0  0  0
  6 10  1  0  0  0  0
  7 11  2  0  0  0  0
  8 12  1  0  0  0  0
  9 13  2  0  0  0  0
 10 14  2  0  0  0  0
 12 15  2  0  0  0  0
 15 16  1  0  0  0  0
 16 17  2  0  0  0  0
 16 18  1  0  0  0  0
 18 19  1  0  0  0  0
 19 20  2  0  0  0  0
 20 21  1  0  0  0  0
 21 22  2  0  0  0  0
 21 23  1  0  0  0  0
 22 24  1  0  0  0  0
 22 25  1  0  0  0  0
 23 26  2  0  0  0  0
 25 27  2  0  0  0  0
 27 28  1  0  0  0  0
 28 29  1  0  0  0  0
  4  6  1  0  0  0  0
 11 14  1  0  0  0  0
 13 15  1  0  0  0  0
 26 27  1  0  0  0  0
M  END
>  <S/N>
262

>  <Compound ID>
C_277

>  <PubChem CID>
136961468

>  <Isomeric SMILES>
COC1=CC(=C(C=C1)/C=N/NC(=O)C2=CC=C(C=C2)C3=NC4=CC=CC=C4S3)O

>  <IC50 (�M)>
6.97

>  <pIC50>
5.16

$$$$
C_278
Actelion Java MolfileCreator 1.0

 27 30  0  0  0  0  0  0  0  0999 V2000
    7.0327    2.4945   -0.0000 S   0  0  0  0  0  0  0  0  0  0  0  0
    6.9282    1.5000   -0.0000 C   0  0  0  0  0  0  0  0  0  0  0  0
    8.0109    2.7024   -0.0000 C   0  0  0  0  0  0  0  0  0  0  0  0
    7.8417    1.0933   -0.0000 N   0  0  0  0  0  0  0  0  0  0  0  0
    6.0622    1.0000   -0.0000 C   0  0  0  0  0  0  0  0  0  0  0  0
    8.5109    1.8364   -0.0000 C   0  0  0  0  0  0  0  0  0  0  0  0
    8.5109    3.5685   -0.0000 C   0  0  0  0  0  0  0  0  0  0  0  0
    5.1962    1.5000   -0.0000 C   0  0  0  0  0  0  0  0  0  0  0  0
    6.0622   -0.0000   -0.0000 C   0  0  0  0  0  0  0  0  0  0  0  0
    9.5109    1.8364   -0.0000 C   0  0  0  0  0  0  0  0  0  0  0  0
    9.5109    3.5685   -0.0000 C   0  0  0  0  0  0  0  0  0  0  0  0
    4.3301    1.0000   -0.0000 C   0  0  0  0  0  0  0  0  0  0  0  0
    5.1962   -0.5000   -0.0000 C   0  0  0  0  0  0  0  0  0  0  0  0
   10.0109    2.7024   -0.0000 C   0  0  0  0  0  0  0  0  0  0  0  0
    4.3301   -0.0000   -0.0000 C   0  0  0  0  0  0  0  0  0  0  0  0
    3.4641   -0.5000   -0.0000 C   0  0  0  0  0  0  0  0  0  0  0  0
    3.4641   -1.5000   -0.0000 O   0  0  0  0  0  0  0  0  0  0  0  0
    2.5981   -0.0000   -0.0000 N   0  0  0  0  0  0  0  0  0  0  0  0
    1.7321   -0.5000   -0.0000 N   0  0  0  0  0  0  0  0  0  0  0  0
    0.8660   -0.0000   -0.0000 C   0  0  0  0  0  0  0  0  0  0  0  0
    0.0000   -0.5000   -0.0000 C   0  0  0  0  0  0  0  0  0  0  0  0
   -0.8660    0.0000   -0.0000 C   0  0  0  0  0  0  0  0  0  0  0  0
   -0.0000   -1.5000   -0.0000 C   0  0  0  0  0  0  0  0  0  0  0  0
   -0.8660    1.0000   -0.0000 O   0  0  0  0  0  0  0  0  0  0  0  0
   -1.7321   -0.5000   -0.0000 C   0  0  0  0  0  0  0  0  0  0  0  0
   -0.8660   -2.0000   -0.0000 C   0  0  0  0  0  0  0  0  0  0  0  0
   -1.7321   -1.5000   -0.0000 C   0  0  0  0  0  0  0  0  0  0  0  0
  1  2  1  0  0  0  0
  1  3  1  0  0  0  0
  2  4  2  0  0  0  0
  2  5  1  0  0  0  0
  3  6  2  0  0  0  0
  3  7  1  0  0  0  0
  5  8  2  0  0  0  0
  5  9  1  0  0  0  0
  6 10  1  0  0  0  0
  7 11  2  0  0  0  0
  8 12  1  0  0  0  0
  9 13  2  0  0  0  0
 10 14  2  0  0  0  0
 12 15  2  0  0  0  0
 15 16  1  0  0  0  0
 16 17  2  0  0  0  0
 16 18  1  0  0  0  0
 18 19  1  0  0  0  0
 19 20  2  0  0  0  0
 20 21  1  0  0  0  0
 21 22  2  0  0  0  0
 21 23  1  0  0  0  0
 22 24  1  0  0  0  0
 22 25  1  0  0  0  0
 23 26  2  0  0  0  0
 25 27  2  0  0  0  0
  4  6  1  0  0  0  0
 11 14  1  0  0  0  0
 13 15  1  0  0  0  0
 26 27  1  0  0  0  0
M  END
>  <S/N>
263

>  <Compound ID>
C_278

>  <PubChem CID>
136961469

>  <Isomeric SMILES>
C1=CC=C(C(=C1)/C=N/NC(=O)C2=CC=C(C=C2)C3=NC4=CC=CC=C4S3)O

>  <IC50 (�M)>
5.55

>  <pIC50>
5.26

$$$$
C_279
Actelion Java MolfileCreator 1.0

 28 31  0  0  0  0  0  0  0  0999 V2000
    7.0327    2.4945   -0.0000 S   0  0  0  0  0  0  0  0  0  0  0  0
    6.9282    1.5000   -0.0000 C   0  0  0  0  0  0  0  0  0  0  0  0
    8.0109    2.7024   -0.0000 C   0  0  0  0  0  0  0  0  0  0  0  0
    7.8417    1.0933   -0.0000 N   0  0  0  0  0  0  0  0  0  0  0  0
    6.0622    1.0000   -0.0000 C   0  0  0  0  0  0  0  0  0  0  0  0
    8.5109    1.8364   -0.0000 C   0  0  0  0  0  0  0  0  0  0  0  0
    8.5109    3.5685   -0.0000 C   0  0  0  0  0  0  0  0  0  0  0  0
    5.1962    1.5000   -0.0000 C   0  0  0  0  0  0  0  0  0  0  0  0
    6.0622   -0.0000   -0.0000 C   0  0  0  0  0  0  0  0  0  0  0  0
    9.5109    1.8364   -0.0000 C   0  0  0  0  0  0  0  0  0  0  0  0
    9.5109    3.5685   -0.0000 C   0  0  0  0  0  0  0  0  0  0  0  0
    4.3301    1.0000   -0.0000 C   0  0  0  0  0  0  0  0  0  0  0  0
    5.1962   -0.5000   -0.0000 C   0  0  0  0  0  0  0  0  0  0  0  0
   10.0109    2.7024   -0.0000 C   0  0  0  0  0  0  0  0  0  0  0  0
    4.3301   -0.0000   -0.0000 C   0  0  0  0  0  0  0  0  0  0  0  0
    3.4641   -0.5000   -0.0000 C   0  0  0  0  0  0  0  0  0  0  0  0
    3.4641   -1.5000   -0.0000 O   0  0  0  0  0  0  0  0  0  0  0  0
    2.5981   -0.0000   -0.0000 N   0  0  0  0  0  0  0  0  0  0  0  0
    1.7321   -0.5000   -0.0000 N   0  0  0  0  0  0  0  0  0  0  0  0
    0.8660   -0.0000   -0.0000 C   0  0  0  0  0  0  0  0  0  0  0  0
    0.0000   -0.5000   -0.0000 C   0  0  0  0  0  0  0  0  0  0  0  0
   -0.8660    0.0000   -0.0000 C   0  0  0  0  0  0  0  0  0  0  0  0
   -0.0000   -1.5000   -0.0000 C   0  0  0  0  0  0  0  0  0  0  0  0
   -1.7321   -0.5000   -0.0000 C   0  0  0  0  0  0  0  0  0  0  0  0
   -0.8660   -2.0000   -0.0000 C   0  0  0  0  0  0  0  0  0  0  0  0
   -2.5981    0.0000   -0.0000 O   0  0  0  0  0  0  0  0  0  0  0  0
   -1.7321   -1.5000   -0.0000 C   0  0  0  0  0  0  0  0  0  0  0  0
   -2.5981   -2.0000   -0.0000 O   0  0  0  0  0  0  0  0  0  0  0  0
  1  2  1  0  0  0  0
  1  3  1  0  0  0  0
  2  4  2  0  0  0  0
  2  5  1  0  0  0  0
  3  6  2  0  0  0  0
  3  7  1  0  0  0  0
  5  8  2  0  0  0  0
  5  9  1  0  0  0  0
  6 10  1  0  0  0  0
  7 11  2  0  0  0  0
  8 12  1  0  0  0  0
  9 13  2  0  0  0  0
 10 14  2  0  0  0  0
 12 15  2  0  0  0  0
 15 16  1  0  0  0  0
 16 17  2  0  0  0  0
 16 18  1  0  0  0  0
 18 19  1  0  0  0  0
 19 20  2  0  0  0  0
 20 21  1  0  0  0  0
 21 22  2  0  0  0  0
 21 23  1  0  0  0  0
 22 24  1  0  0  0  0
 23 25  2  0  0  0  0
 24 26  1  0  0  0  0
 24 27  2  0  0  0  0
 27 28  1  0  0  0  0
  4  6  1  0  0  0  0
 11 14  1  0  0  0  0
 13 15  1  0  0  0  0
 25 27  1  0  0  0  0
M  END
>  <S/N>
264

>  <Compound ID>
C_279

>  <PubChem CID>
136961470

>  <Isomeric SMILES>
C1=CC=C2C(=C1)N=C(S2)C3=CC=C(C=C3)C(=O)N/N=C/C4=CC(=C(C=C4)O)O

>  <IC50 (�M)>
15.09

>  <pIC50>
4.82

$$$$
C_280
Actelion Java MolfileCreator 1.0

 28 31  0  0  0  0  0  0  0  0999 V2000
    7.0327    2.4945   -0.0000 S   0  0  0  0  0  0  0  0  0  0  0  0
    6.9282    1.5000   -0.0000 C   0  0  0  0  0  0  0  0  0  0  0  0
    8.0109    2.7024   -0.0000 C   0  0  0  0  0  0  0  0  0  0  0  0
    7.8417    1.0933   -0.0000 N   0  0  0  0  0  0  0  0  0  0  0  0
    6.0622    1.0000   -0.0000 C   0  0  0  0  0  0  0  0  0  0  0  0
    8.5109    1.8364   -0.0000 C   0  0  0  0  0  0  0  0  0  0  0  0
    8.5109    3.5685   -0.0000 C   0  0  0  0  0  0  0  0  0  0  0  0
    5.1962    1.5000   -0.0000 C   0  0  0  0  0  0  0  0  0  0  0  0
    6.0622   -0.0000   -0.0000 C   0  0  0  0  0  0  0  0  0  0  0  0
    9.5109    1.8364   -0.0000 C   0  0  0  0  0  0  0  0  0  0  0  0
    9.5109    3.5685   -0.0000 C   0  0  0  0  0  0  0  0  0  0  0  0
    4.3301    1.0000   -0.0000 C   0  0  0  0  0  0  0  0  0  0  0  0
    5.1962   -0.5000   -0.0000 C   0  0  0  0  0  0  0  0  0  0  0  0
   10.0109    2.7024   -0.0000 C   0  0  0  0  0  0  0  0  0  0  0  0
    4.3301   -0.0000   -0.0000 C   0  0  0  0  0  0  0  0  0  0  0  0
    3.4641   -0.5000   -0.0000 C   0  0  0  0  0  0  0  0  0  0  0  0
    3.4641   -1.5000   -0.0000 O   0  0  0  0  0  0  0  0  0  0  0  0
    2.5981   -0.0000   -0.0000 N   0  0  0  0  0  0  0  0  0  0  0  0
    1.7321   -0.5000   -0.0000 N   0  0  0  0  0  0  0  0  0  0  0  0
    0.8660   -0.0000   -0.0000 C   0  0  0  0  0  0  0  0  0  0  0  0
    0.0000   -0.5000   -0.0000 C   0  0  0  0  0  0  0  0  0  0  0  0
   -0.8660    0.0000   -0.0000 C   0  0  0  0  0  0  0  0  0  0  0  0
   -0.0000   -1.5000   -0.0000 C   0  0  0  0  0  0  0  0  0  0  0  0
   -0.8660    1.0000   -0.0000 O   0  0  0  0  0  0  0  0  0  0  0  0
   -1.7321   -0.5000   -0.0000 C   0  0  0  0  0  0  0  0  0  0  0  0
   -0.8660   -2.0000   -0.0000 C   0  0  0  0  0  0  0  0  0  0  0  0
   -1.7321   -1.5000   -0.0000 C   0  0  0  0  0  0  0  0  0  0  0  0
   -2.5981   -2.0000   -0.0000 O   0  0  0  0  0  0  0  0  0  0  0  0
  1  2  1  0  0  0  0
  1  3  1  0  0  0  0
  2  4  2  0  0  0  0
  2  5  1  0  0  0  0
  3  6  2  0  0  0  0
  3  7  1  0  0  0  0
  5  8  2  0  0  0  0
  5  9  1  0  0  0  0
  6 10  1  0  0  0  0
  7 11  2  0  0  0  0
  8 12  1  0  0  0  0
  9 13  2  0  0  0  0
 10 14  2  0  0  0  0
 12 15  2  0  0  0  0
 15 16  1  0  0  0  0
 16 17  2  0  0  0  0
 16 18  1  0  0  0  0
 18 19  1  0  0  0  0
 19 20  2  0  0  0  0
 20 21  1  0  0  0  0
 21 22  2  0  0  0  0
 21 23  1  0  0  0  0
 22 24  1  0  0  0  0
 22 25  1  0  0  0  0
 23 26  2  0  0  0  0
 25 27  2  0  0  0  0
 27 28  1  0  0  0  0
  4  6  1  0  0  0  0
 11 14  1  0  0  0  0
 13 15  1  0  0  0  0
 26 27  1  0  0  0  0
M  END
>  <S/N>
265

>  <Compound ID>
C_280

>  <PubChem CID>
136961471

>  <Isomeric SMILES>
C1=CC=C2C(=C1)N=C(S2)C3=CC=C(C=C3)C(=O)N/N=C/C4=C(C=C(C=C4)O)O

>  <IC50 (�M)>
5.58

>  <pIC50>
5.25

$$$$
C_281
Actelion Java MolfileCreator 1.0

 28 31  0  0  0  0  0  0  0  0999 V2000
    6.9282   -0.5000   -0.0000 Br  0  0  0  0  0  0  0  0  0  0  0  0
    6.0622   -0.0000   -0.0000 C   0  0  0  0  0  0  0  0  0  0  0  0
    6.0622    1.0000   -0.0000 C   0  0  0  0  0  0  0  0  0  0  0  0
    5.1962   -0.5000   -0.0000 C   0  0  0  0  0  0  0  0  0  0  0  0
    6.9282    1.5000   -0.0000 O   0  0  0  0  0  0  0  0  0  0  0  0
    5.1962    1.5000   -0.0000 C   0  0  0  0  0  0  0  0  0  0  0  0
    4.3301   -0.0000   -0.0000 C   0  0  0  0  0  0  0  0  0  0  0  0
    4.3301    1.0000   -0.0000 C   0  0  0  0  0  0  0  0  0  0  0  0
    3.4641   -0.5000   -0.0000 C   0  0  0  0  0  0  0  0  0  0  0  0
    2.5981   -0.0000   -0.0000 N   0  0  0  0  0  0  0  0  0  0  0  0
    1.7321   -0.5000   -0.0000 N   0  0  0  0  0  0  0  0  0  0  0  0
    0.8660   -0.0000   -0.0000 C   0  0  0  0  0  0  0  0  0  0  0  0
    0.8660    1.0000   -0.0000 O   0  0  0  0  0  0  0  0  0  0  0  0
    0.0000   -0.5000   -0.0000 C   0  0  0  0  0  0  0  0  0  0  0  0
   -0.8660    0.0000   -0.0000 C   0  0  0  0  0  0  0  0  0  0  0  0
   -0.0000   -1.5000   -0.0000 C   0  0  0  0  0  0  0  0  0  0  0  0
   -1.7321   -0.5000   -0.0000 C   0  0  0  0  0  0  0  0  0  0  0  0
   -0.8660   -2.0000   -0.0000 C   0  0  0  0  0  0  0  0  0  0  0  0
   -1.7321   -1.5000   -0.0000 C   0  0  0  0  0  0  0  0  0  0  0  0
   -2.5981   -2.0000   -0.0000 C   0  0  0  0  0  0  0  0  0  0  0  0
   -3.5116   -1.5933   -0.0000 S   0  0  0  0  0  0  0  0  0  0  0  0
   -2.7026   -2.9945   -0.0000 N   0  0  0  0  0  0  0  0  0  0  0  0
   -4.1808   -2.3364   -0.0000 C   0  0  0  0  0  0  0  0  0  0  0  0
   -3.6808   -3.2024   -0.0000 C   0  0  0  0  0  0  0  0  0  0  0  0
   -5.1808   -2.3364   -0.0000 C   0  0  0  0  0  0  0  0  0  0  0  0
   -4.1808   -4.0685   -0.0000 C   0  0  0  0  0  0  0  0  0  0  0  0
   -5.6808   -3.2024   -0.0000 C   0  0  0  0  0  0  0  0  0  0  0  0
   -5.1808   -4.0685   -0.0000 C   0  0  0  0  0  0  0  0  0  0  0  0
  1  2  1  0  0  0  0
  2  3  2  0  0  0  0
  2  4  1  0  0  0  0
  3  5  1  0  0  0  0
  3  6  1  0  0  0  0
  4  7  2  0  0  0  0
  6  8  2  0  0  0  0
  7  9  1  0  0  0  0
  9 10  2  0  0  0  0
 10 11  1  0  0  0  0
 11 12  1  0  0  0  0
 12 13  2  0  0  0  0
 12 14  1  0  0  0  0
 14 15  2  0  0  0  0
 14 16  1  0  0  0  0
 15 17  1  0  0  0  0
 16 18  2  0  0  0  0
 17 19  2  0  0  0  0
 19 20  1  0  0  0  0
 20 21  1  0  0  0  0
 20 22  2  0  0  0  0
 21 23  1  0  0  0  0
 22 24  1  0  0  0  0
 23 25  2  0  0  0  0
 24 26  2  0  0  0  0
 25 27  1  0  0  0  0
 26 28  1  0  0  0  0
  7  8  1  0  0  0  0
 18 19  1  0  0  0  0
 23 24  1  0  0  0  0
 27 28  2  0  0  0  0
M  END
>  <S/N>
266

>  <Compound ID>
C_281

>  <PubChem CID>
136961472

>  <Isomeric SMILES>
C1=CC=C2C(=C1)N=C(S2)C3=CC=C(C=C3)C(=O)N/N=C/C4=CC(=C(C=C4)O)Br

>  <IC50 (�M)>
8.07

>  <pIC50>
5.09

$$$$
C_282
Actelion Java MolfileCreator 1.0

 29 32  0  0  0  0  0  0  0  0999 V2000
    7.0327    2.4945   -0.0000 S   0  0  0  0  0  0  0  0  0  0  0  0
    6.9282    1.5000   -0.0000 C   0  0  0  0  0  0  0  0  0  0  0  0
    8.0109    2.7024   -0.0000 C   0  0  0  0  0  0  0  0  0  0  0  0
    7.8417    1.0933   -0.0000 N   0  0  0  0  0  0  0  0  0  0  0  0
    6.0622    1.0000   -0.0000 C   0  0  0  0  0  0  0  0  0  0  0  0
    8.5109    1.8364   -0.0000 C   0  0  0  0  0  0  0  0  0  0  0  0
    8.5109    3.5685   -0.0000 C   0  0  0  0  0  0  0  0  0  0  0  0
    5.1962    1.5000   -0.0000 C   0  0  0  0  0  0  0  0  0  0  0  0
    6.0622   -0.0000   -0.0000 C   0  0  0  0  0  0  0  0  0  0  0  0
    9.5109    1.8364   -0.0000 C   0  0  0  0  0  0  0  0  0  0  0  0
    9.5109    3.5685   -0.0000 C   0  0  0  0  0  0  0  0  0  0  0  0
    4.3301    1.0000   -0.0000 C   0  0  0  0  0  0  0  0  0  0  0  0
    5.1962   -0.5000   -0.0000 C   0  0  0  0  0  0  0  0  0  0  0  0
   10.0109    2.7024   -0.0000 C   0  0  0  0  0  0  0  0  0  0  0  0
    4.3301   -0.0000   -0.0000 C   0  0  0  0  0  0  0  0  0  0  0  0
    3.4641   -0.5000   -0.0000 C   0  0  0  0  0  0  0  0  0  0  0  0
    3.4641   -1.5000   -0.0000 O   0  0  0  0  0  0  0  0  0  0  0  0
    2.5981   -0.0000   -0.0000 N   0  0  0  0  0  0  0  0  0  0  0  0
    1.7321   -0.5000   -0.0000 N   0  0  0  0  0  0  0  0  0  0  0  0
    0.8660   -0.0000   -0.0000 C   0  0  0  0  0  0  0  0  0  0  0  0
    0.0000   -0.5000   -0.0000 C   0  0  0  0  0  0  0  0  0  0  0  0
   -0.8660    0.0000   -0.0000 C   0  0  0  0  0  0  0  0  0  0  0  0
   -0.0000   -1.5000   -0.0000 C   0  0  0  0  0  0  0  0  0  0  0  0
   -1.7321   -0.5000   -0.0000 C   0  0  0  0  0  0  0  0  0  0  0  0
   -0.8660   -2.0000   -0.0000 C   0  0  0  0  0  0  0  0  0  0  0  0
   -2.5981    0.0000   -0.0000 O   0  0  0  0  0  0  0  0  0  0  0  0
   -1.7321   -1.5000   -0.0000 C   0  0  0  0  0  0  0  0  0  0  0  0
   -3.4641   -0.5000   -0.0000 C   0  0  0  0  0  0  0  0  0  0  0  0
   -2.5981   -2.0000   -0.0000 O   0  0  0  0  0  0  0  0  0  0  0  0
  1  2  1  0  0  0  0
  1  3  1  0  0  0  0
  2  4  2  0  0  0  0
  2  5  1  0  0  0  0
  3  6  2  0  0  0  0
  3  7  1  0  0  0  0
  5  8  2  0  0  0  0
  5  9  1  0  0  0  0
  6 10  1  0  0  0  0
  7 11  2  0  0  0  0
  8 12  1  0  0  0  0
  9 13  2  0  0  0  0
 10 14  2  0  0  0  0
 12 15  2  0  0  0  0
 15 16  1  0  0  0  0
 16 17  2  0  0  0  0
 16 18  1  0  0  0  0
 18 19  1  0  0  0  0
 19 20  2  0  0  0  0
 20 21  1  0  0  0  0
 21 22  2  0  0  0  0
 21 23  1  0  0  0  0
 22 24  1  0  0  0  0
 23 25  2  0  0  0  0
 24 26  1  0  0  0  0
 24 27  2  0  0  0  0
 26 28  1  0  0  0  0
 27 29  1  0  0  0  0
  4  6  1  0  0  0  0
 11 14  1  0  0  0  0
 13 15  1  0  0  0  0
 25 27  1  0  0  0  0
M  END
>  <S/N>
267

>  <Compound ID>
C_282

>  <PubChem CID>
136961473

>  <Isomeric SMILES>
COC1=C(C=CC(=C1)/C=N/NC(=O)C2=CC=C(C=C2)C3=NC4=CC=CC=C4S3)O

>  <IC50 (�M)>
53.34

>  <pIC50>
4.27

$$$$
C_283
Actelion Java MolfileCreator 1.0

 28 31  0  0  0  0  0  0  0  0999 V2000
    7.0327    2.4945   -0.0000 S   0  0  0  0  0  0  0  0  0  0  0  0
    6.9282    1.5000   -0.0000 C   0  0  0  0  0  0  0  0  0  0  0  0
    8.0109    2.7024   -0.0000 C   0  0  0  0  0  0  0  0  0  0  0  0
    7.8417    1.0933   -0.0000 N   0  0  0  0  0  0  0  0  0  0  0  0
    6.0622    1.0000   -0.0000 C   0  0  0  0  0  0  0  0  0  0  0  0
    8.5109    1.8364   -0.0000 C   0  0  0  0  0  0  0  0  0  0  0  0
    8.5109    3.5685   -0.0000 C   0  0  0  0  0  0  0  0  0  0  0  0
    5.1962    1.5000   -0.0000 C   0  0  0  0  0  0  0  0  0  0  0  0
    6.0622   -0.0000   -0.0000 C   0  0  0  0  0  0  0  0  0  0  0  0
    9.5109    1.8364   -0.0000 C   0  0  0  0  0  0  0  0  0  0  0  0
    9.5109    3.5685   -0.0000 C   0  0  0  0  0  0  0  0  0  0  0  0
    4.3301    1.0000   -0.0000 C   0  0  0  0  0  0  0  0  0  0  0  0
    5.1962   -0.5000   -0.0000 C   0  0  0  0  0  0  0  0  0  0  0  0
   10.0109    2.7024   -0.0000 C   0  0  0  0  0  0  0  0  0  0  0  0
    4.3301   -0.0000   -0.0000 C   0  0  0  0  0  0  0  0  0  0  0  0
    3.4641   -0.5000   -0.0000 C   0  0  0  0  0  0  0  0  0  0  0  0
    3.4641   -1.5000   -0.0000 O   0  0  0  0  0  0  0  0  0  0  0  0
    2.5981   -0.0000   -0.0000 N   0  0  0  0  0  0  0  0  0  0  0  0
    1.7321   -0.5000   -0.0000 N   0  0  0  0  0  0  0  0  0  0  0  0
    0.8660   -0.0000   -0.0000 C   0  0  0  0  0  0  0  0  0  0  0  0
    0.0000   -0.5000   -0.0000 C   0  0  0  0  0  0  0  0  0  0  0  0
   -0.8660    0.0000   -0.0000 C   0  0  0  0  0  0  0  0  0  0  0  0
   -0.0000   -1.5000   -0.0000 C   0  0  0  0  0  0  0  0  0  0  0  0
   -0.8660    1.0000   -0.0000 O   0  0  0  0  0  0  0  0  0  0  0  0
   -1.7321   -0.5000   -0.0000 C   0  0  0  0  0  0  0  0  0  0  0  0
   -0.8660   -2.0000   -0.0000 C   0  0  0  0  0  0  0  0  0  0  0  0
   -1.7321   -1.5000   -0.0000 C   0  0  0  0  0  0  0  0  0  0  0  0
   -0.8660   -3.0000   -0.0000 O   0  0  0  0  0  0  0  0  0  0  0  0
  1  2  1  0  0  0  0
  1  3  1  0  0  0  0
  2  4  2  0  0  0  0
  2  5  1  0  0  0  0
  3  6  2  0  0  0  0
  3  7  1  0  0  0  0
  5  8  2  0  0  0  0
  5  9  1  0  0  0  0
  6 10  1  0  0  0  0
  7 11  2  0  0  0  0
  8 12  1  0  0  0  0
  9 13  2  0  0  0  0
 10 14  2  0  0  0  0
 12 15  2  0  0  0  0
 15 16  1  0  0  0  0
 16 17  2  0  0  0  0
 16 18  1  0  0  0  0
 18 19  1  0  0  0  0
 19 20  2  0  0  0  0
 20 21  1  0  0  0  0
 21 22  2  0  0  0  0
 21 23  1  0  0  0  0
 22 24  1  0  0  0  0
 22 25  1  0  0  0  0
 23 26  2  0  0  0  0
 25 27  2  0  0  0  0
 26 28  1  0  0  0  0
  4  6  1  0  0  0  0
 11 14  1  0  0  0  0
 13 15  1  0  0  0  0
 26 27  1  0  0  0  0
M  END
>  <S/N>
268

>  <Compound ID>
C_283

>  <PubChem CID>
136961474

>  <Isomeric SMILES>
C1=CC=C2C(=C1)N=C(S2)C3=CC=C(C=C3)C(=O)N/N=C/C4=C(C=CC(=C4)O)O

>  <IC50 (�M)>
11.85

>  <pIC50>
4.93

$$$$
C_284
Actelion Java MolfileCreator 1.0

 24 27  0  0  0  0  0  0  0  0999 V2000
    2.7026    0.9945   -0.0000 S   0  0  0  0  0  0  0  0  0  0  0  0
    2.5981   -0.0000   -0.0000 C   0  0  0  0  0  0  0  0  0  0  0  0
    3.6808    1.2024   -0.0000 C   0  0  0  0  0  0  0  0  0  0  0  0
    3.5116   -0.4067   -0.0000 N   0  0  0  0  0  0  0  0  0  0  0  0
    1.7321   -0.5000   -0.0000 N   0  0  0  0  0  0  0  0  0  0  0  0
    4.1808    0.3364   -0.0000 C   0  0  0  0  0  0  0  0  0  0  0  0
    0.8660   -0.0000   -0.0000 N   0  0  0  0  0  0  0  0  0  0  0  0
    5.1753    0.2319   -0.0000 C   0  0  0  0  0  0  0  0  0  0  0  0
    0.0000   -0.5000   -0.0000 C   0  0  0  0  0  0  0  0  0  0  0  0
    5.5820   -0.6817   -0.0000 C   0  0  0  0  0  0  0  0  0  0  0  0
    5.7631    1.0409   -0.0000 C   0  0  0  0  0  0  0  0  0  0  0  0
   -0.9135   -0.0933   -0.0000 C   0  0  0  0  0  0  0  0  0  0  0  0
   -0.1045   -1.4945   -0.0000 C   0  0  0  0  0  0  0  0  0  0  0  0
    6.5765   -0.7862   -0.0000 C   0  0  0  0  0  0  0  0  0  0  0  0
    6.7576    0.9364   -0.0000 C   0  0  0  0  0  0  0  0  0  0  0  0
   -1.1215    0.8849   -0.0000 O   0  0  0  0  0  0  0  0  0  0  0  0
   -1.5827   -0.8364   -0.0000 N   0  0  0  0  0  0  0  0  0  0  0  0
   -1.0827   -1.7024   -0.0000 C   0  0  0  0  0  0  0  0  0  0  0  0
    0.5646   -2.2377   -0.0000 C   0  0  0  0  0  0  0  0  0  0  0  0
    7.1643    0.0228   -0.0000 C   0  0  0  0  0  0  0  0  0  0  0  0
   -1.3917   -2.6535   -0.0000 C   0  0  0  0  0  0  0  0  0  0  0  0
    0.2556   -3.1887   -0.0000 C   0  0  0  0  0  0  0  0  0  0  0  0
    8.1588   -0.0817   -0.0000 F   0  0  0  0  0  0  0  0  0  0  0  0
   -0.7226   -3.3966   -0.0000 C   0  0  0  0  0  0  0  0  0  0  0  0
  1  2  1  0  0  0  0
  1  3  1  0  0  0  0
  2  4  2  0  0  0  0
  2  5  1  0  0  0  0
  3  6  2  0  0  0  0
  5  7  2  3  0  0  0
  6  8  1  0  0  0  0
  7  9  1  0  0  0  0
  8 10  2  0  0  0  0
  8 11  1  0  0  0  0
  9 12  2  0  0  0  0
  9 13  1  0  0  0  0
 10 14  1  0  0  0  0
 11 15  2  0  0  0  0
 12 16  1  0  0  0  0
 12 17  1  0  0  0  0
 13 18  2  0  0  0  0
 13 19  1  0  0  0  0
 14 20  2  0  0  0  0
 18 21  1  0  0  0  0
 19 22  2  0  0  0  0
 20 23  1  0  0  0  0
 21 24  2  0  0  0  0
  4  6  1  0  0  0  0
 15 20  1  0  0  0  0
 17 18  1  0  0  0  0
 22 24  1  0  0  0  0
M  END
>  <S/N>
269

>  <Compound ID>
C_284

>  <PubChem CID>
136961580

>  <Isomeric SMILES>
C1=CC=C2C(=C1)C(=C(N2)O)N=NC3=NC(=CS3)C4=CC=C(C=C4)F

>  <IC50 (�M)>
5.3

>  <pIC50>
5.28

$$$$
C_285
Actelion Java MolfileCreator 1.0

 18 20  0  0  0  0  0  0  0  0999 V2000
    2.5981   -2.2500   -0.0000 O   0  0  0  0  0  0  0  0  0  0  0  0
    2.5981   -0.7500   -0.0000 C   0  0  0  0  0  0  0  0  0  0  0  0
    3.8971   -0.0000   -0.0000 C   0  0  0  0  0  0  0  0  0  0  0  0
    1.2990   -0.0000   -0.0000 C   0  0  0  0  0  0  0  0  0  0  0  0
    5.1962   -0.7500   -0.0000 O   0  0  0  0  0  0  0  0  0  0  0  0
    3.8971    1.5000   -0.0000 C   0  0  0  0  0  0  0  0  0  0  0  0
    0.0000   -0.7500   -0.0000 C   0  0  0  0  0  0  0  0  0  0  0  0
    1.2990    1.5000   -0.0000 C   0  0  0  0  0  0  0  0  0  0  0  0
    2.5981    2.2500   -0.0000 C   0  0  0  0  0  0  0  0  0  0  0  0
   -1.3703   -0.1399   -0.0000 N   0  0  0  0  0  0  0  0  0  0  0  0
   -0.1568   -2.2418   -0.0000 N   0  0  0  0  0  0  0  0  0  0  0  0
   -2.3740   -1.2546   -0.0000 C   0  0  0  0  0  0  0  0  0  0  0  0
   -1.6240   -2.5537   -0.0000 C   0  0  0  0  0  0  0  0  0  0  0  0
   -3.8740   -1.2546   -0.0000 C   0  0  0  0  0  0  0  0  0  0  0  0
   -2.3740   -3.8527   -0.0000 C   0  0  0  0  0  0  0  0  0  0  0  0
   -4.6240   -2.5537   -0.0000 C   0  0  0  0  0  0  0  0  0  0  0  0
   -4.6240    0.0444   -0.0000 C   0  0  0  0  0  0  0  0  0  0  0  0
   -3.8740   -3.8527   -0.0000 C   0  0  0  0  0  0  0  0  0  0  0  0
  1  2  1  0  0  0  0
  2  3  2  0  0  0  0
  2  4  1  0  0  0  0
  3  5  1  0  0  0  0
  3  6  1  0  0  0  0
  4  7  1  0  0  0  0
  4  8  2  0  0  0  0
  6  9  2  0  0  0  0
  7 10  2  0  0  0  0
  7 11  1  0  0  0  0
 10 12  1  0  0  0  0
 11 13  1  0  0  0  0
 12 14  2  0  0  0  0
 13 15  2  0  0  0  0
 14 16  1  0  0  0  0
 14 17  1  0  0  0  0
 15 18  1  0  0  0  0
  8  9  1  0  0  0  0
 12 13  1  0  0  0  0
 16 18  2  0  0  0  0
M  END
>  <S/N>
270

>  <Compound ID>
C_285

>  <PubChem CID>
136965669

>  <Isomeric SMILES>
CC1=C2C(=CC=C1)NC(=N2)C3=C(C(=CC=C3)O)O

>  <IC50 (�M)>
5.3

>  <pIC50>
5.28

$$$$
C_286
Actelion Java MolfileCreator 1.0

 28 31  0  0  0  0  0  0  0  0999 V2000
    4.4347    0.9945   -0.0000 S   0  0  0  0  0  0  0  0  0  0  0  0
    4.3301   -0.0000   -0.0000 C   0  0  0  0  0  0  0  0  0  0  0  0
    5.4128    1.2024   -0.0000 C   0  0  0  0  0  0  0  0  0  0  0  0
    5.2437   -0.4067   -0.0000 N   0  0  0  0  0  0  0  0  0  0  0  0
    3.4641   -0.5000   -0.0000 C   0  0  0  0  0  0  0  0  0  0  0  0
    5.9128    0.3364   -0.0000 C   0  0  0  0  0  0  0  0  0  0  0  0
    3.4641   -1.5000   -0.0000 O   0  0  0  0  0  0  0  0  0  0  0  0
    2.5981   -0.0000   -0.0000 N   0  0  0  0  0  0  0  0  0  0  0  0
    6.9073    0.2319   -0.0000 C   0  0  0  0  0  0  0  0  0  0  0  0
    1.7321   -0.5000   -0.0000 N   0  0  0  0  0  0  0  0  0  0  0  0
    7.3141   -0.6817   -0.0000 C   0  0  0  0  0  0  0  0  0  0  0  0
    7.4951    1.0409   -0.0000 C   0  0  0  0  0  0  0  0  0  0  0  0
    0.8660   -0.0000   -0.0000 C   0  0  0  0  0  0  0  0  0  0  0  0
    6.7263   -1.4907   -0.0000 O   0  0  0  0  0  0  0  0  0  0  0  0
    8.3086   -0.7862   -0.0000 O   0  0  0  0  0  0  0  0  0  0  0  0
    8.4896    0.9364   -0.0000 C   0  0  0  0  0  0  0  0  0  0  0  0
    0.0000   -0.5000   -0.0000 C   0  0  0  0  0  0  0  0  0  0  0  0
    8.8964    0.0228   -0.0000 C   0  0  0  0  0  0  0  0  0  0  0  0
    9.0774    1.7454   -0.0000 C   0  0  0  0  0  0  0  0  0  0  0  0
   -0.8660    0.0000   -0.0000 C   0  0  0  0  0  0  0  0  0  0  0  0
   -0.0000   -1.5000   -0.0000 C   0  0  0  0  0  0  0  0  0  0  0  0
    9.8909   -0.0817   -0.0000 C   0  0  0  0  0  0  0  0  0  0  0  0
   10.0719    1.6409   -0.0000 C   0  0  0  0  0  0  0  0  0  0  0  0
   -0.8660    1.0000   -0.0000 O   0  0  0  0  0  0  0  0  0  0  0  0
   -1.7321   -0.5000   -0.0000 C   0  0  0  0  0  0  0  0  0  0  0  0
   -0.8660   -2.0000   -0.0000 C   0  0  0  0  0  0  0  0  0  0  0  0
   10.4787    0.7273   -0.0000 C   0  0  0  0  0  0  0  0  0  0  0  0
   -1.7321   -1.5000   -0.0000 C   0  0  0  0  0  0  0  0  0  0  0  0
  1  2  1  0  0  0  0
  1  3  1  0  0  0  0
  2  4  2  0  0  0  0
  2  5  1  0  0  0  0
  3  6  2  0  0  0  0
  5  7  2  0  0  0  0
  5  8  1  0  0  0  0
  6  9  1  0  0  0  0
  8 10  1  0  0  0  0
  9 11  1  0  0  0  0
  9 12  2  0  0  0  0
 10 13  2  0  0  0  0
 11 14  2  0  0  0  0
 11 15  1  0  0  0  0
 12 16  1  0  0  0  0
 13 17  1  0  0  0  0
 15 18  1  0  0  0  0
 16 19  1  0  0  0  0
 17 20  2  0  0  0  0
 17 21  1  0  0  0  0
 18 22  1  0  0  0  0
 19 23  2  0  0  0  0
 20 24  1  0  0  0  0
 20 25  1  0  0  0  0
 21 26  2  0  0  0  0
 22 27  2  0  0  0  0
 25 28  2  0  0  0  0
  4  6  1  0  0  0  0
 16 18  2  0  0  0  0
 23 27  1  0  0  0  0
 26 28  1  0  0  0  0
M  END
>  <S/N>
271

>  <Compound ID>
C_286

>  <PubChem CID>
137001841

>  <Isomeric SMILES>
C1=CC=C2C(=C1)C=C(C(=O)O2)C3=CSC(=N3)C(=O)N/N=C/C4=CC=CC=C4O

>  <IC50 (�M)>
6.2

>  <pIC50>
5.21

$$$$
C_287
Actelion Java MolfileCreator 1.0

 28 31  0  0  0  0  0  0  0  0999 V2000
    4.4347    0.9945   -0.0000 S   0  0  0  0  0  0  0  0  0  0  0  0
    4.3301   -0.0000   -0.0000 C   0  0  0  0  0  0  0  0  0  0  0  0
    5.4128    1.2024   -0.0000 C   0  0  0  0  0  0  0  0  0  0  0  0
    5.2437   -0.4067   -0.0000 N   0  0  0  0  0  0  0  0  0  0  0  0
    3.4641   -0.5000   -0.0000 C   0  0  0  0  0  0  0  0  0  0  0  0
    5.9128    0.3364   -0.0000 C   0  0  0  0  0  0  0  0  0  0  0  0
    3.4641   -1.5000   -0.0000 O   0  0  0  0  0  0  0  0  0  0  0  0
    2.5981   -0.0000   -0.0000 N   0  0  0  0  0  0  0  0  0  0  0  0
    6.9073    0.2319   -0.0000 C   0  0  0  0  0  0  0  0  0  0  0  0
    1.7321   -0.5000   -0.0000 N   0  0  0  0  0  0  0  0  0  0  0  0
    7.3141   -0.6817   -0.0000 C   0  0  0  0  0  0  0  0  0  0  0  0
    7.4951    1.0409   -0.0000 C   0  0  0  0  0  0  0  0  0  0  0  0
    0.8660   -0.0000   -0.0000 C   0  0  0  0  0  0  0  0  0  0  0  0
    6.7263   -1.4907   -0.0000 O   0  0  0  0  0  0  0  0  0  0  0  0
    8.3086   -0.7862   -0.0000 O   0  0  0  0  0  0  0  0  0  0  0  0
    8.4896    0.9364   -0.0000 C   0  0  0  0  0  0  0  0  0  0  0  0
    0.0000   -0.5000   -0.0000 C   0  0  0  0  0  0  0  0  0  0  0  0
    8.8964    0.0228   -0.0000 C   0  0  0  0  0  0  0  0  0  0  0  0
    9.0774    1.7454   -0.0000 C   0  0  0  0  0  0  0  0  0  0  0  0
   -0.8660    0.0000   -0.0000 C   0  0  0  0  0  0  0  0  0  0  0  0
   -0.0000   -1.5000   -0.0000 C   0  0  0  0  0  0  0  0  0  0  0  0
    9.8909   -0.0817   -0.0000 C   0  0  0  0  0  0  0  0  0  0  0  0
   10.0719    1.6409   -0.0000 C   0  0  0  0  0  0  0  0  0  0  0  0
   -1.7321   -0.5000   -0.0000 C   0  0  0  0  0  0  0  0  0  0  0  0
   -0.8660   -2.0000   -0.0000 C   0  0  0  0  0  0  0  0  0  0  0  0
   10.4787    0.7273   -0.0000 C   0  0  0  0  0  0  0  0  0  0  0  0
   -1.7321   -1.5000   -0.0000 C   0  0  0  0  0  0  0  0  0  0  0  0
   -2.5981   -2.0000   -0.0000 O   0  0  0  0  0  0  0  0  0  0  0  0
  1  2  1  0  0  0  0
  1  3  1  0  0  0  0
  2  4  2  0  0  0  0
  2  5  1  0  0  0  0
  3  6  2  0  0  0  0
  5  7  2  0  0  0  0
  5  8  1  0  0  0  0
  6  9  1  0  0  0  0
  8 10  1  0  0  0  0
  9 11  1  0  0  0  0
  9 12  2  0  0  0  0
 10 13  2  0  0  0  0
 11 14  2  0  0  0  0
 11 15  1  0  0  0  0
 12 16  1  0  0  0  0
 13 17  1  0  0  0  0
 15 18  1  0  0  0  0
 16 19  1  0  0  0  0
 17 20  2  0  0  0  0
 17 21  1  0  0  0  0
 18 22  1  0  0  0  0
 19 23  2  0  0  0  0
 20 24  1  0  0  0  0
 21 25  2  0  0  0  0
 22 26  2  0  0  0  0
 24 27  2  0  0  0  0
 27 28  1  0  0  0  0
  4  6  1  0  0  0  0
 16 18  2  0  0  0  0
 23 26  1  0  0  0  0
 25 27  1  0  0  0  0
M  END
>  <S/N>
272

>  <Compound ID>
C_287

>  <PubChem CID>
137001842

>  <Isomeric SMILES>
C1=CC=C2C(=C1)C=C(C(=O)O2)C3=CSC(=N3)C(=O)N/N=C/C4=CC=C(C=C4)O

>  <IC50 (�M)>
6.2

>  <pIC50>
5.21

$$$$
C_288
Actelion Java MolfileCreator 1.0

 36 39  0  0  0  0  0  0  0  0999 V2000
    4.4347    0.9945   -0.0000 S   0  0  0  0  0  0  0  0  0  0  0  0
    4.3301   -0.0000   -0.0000 C   0  0  0  0  0  0  0  0  0  0  0  0
    5.4128    1.2024   -0.0000 C   0  0  0  0  0  0  0  0  0  0  0  0
    5.2437   -0.4067   -0.0000 N   0  0  0  0  0  0  0  0  0  0  0  0
    3.4641   -0.5000   -0.0000 C   0  0  0  0  0  0  0  0  0  0  0  0
    5.9128    0.3364   -0.0000 C   0  0  0  0  0  0  0  0  0  0  0  0
    3.4641   -1.5000   -0.0000 O   0  0  0  0  0  0  0  0  0  0  0  0
    2.5981   -0.0000   -0.0000 N   0  0  0  0  0  0  0  0  0  0  0  0
    6.9073    0.2319   -0.0000 C   0  0  0  0  0  0  0  0  0  0  0  0
    1.7321   -0.5000   -0.0000 N   0  0  0  0  0  0  0  0  0  0  0  0
    7.3141   -0.6817   -0.0000 C   0  0  0  0  0  0  0  0  0  0  0  0
    7.4951    1.0409   -0.0000 C   0  0  0  0  0  0  0  0  0  0  0  0
    0.8660   -0.0000   -0.0000 C   0  0  0  0  0  0  0  0  0  0  0  0
    6.7263   -1.4907   -0.0000 O   0  0  0  0  0  0  0  0  0  0  0  0
    8.3086   -0.7862   -0.0000 O   0  0  0  0  0  0  0  0  0  0  0  0
    8.4896    0.9364   -0.0000 C   0  0  0  0  0  0  0  0  0  0  0  0
    0.0000   -0.5000   -0.0000 C   0  0  0  0  0  0  0  0  0  0  0  0
    8.8964    0.0228   -0.0000 C   0  0  0  0  0  0  0  0  0  0  0  0
    9.0774    1.7454   -0.0000 C   0  0  0  0  0  0  0  0  0  0  0  0
   -0.8660    0.0000   -0.0000 C   0  0  0  0  0  0  0  0  0  0  0  0
   -0.0000   -1.5000   -0.0000 C   0  0  0  0  0  0  0  0  0  0  0  0
    9.8909   -0.0817   -0.0000 C   0  0  0  0  0  0  0  0  0  0  0  0
   10.0719    1.6409   -0.0000 C   0  0  0  0  0  0  0  0  0  0  0  0
   -0.8660    1.0000   -0.0000 O   0  0  0  0  0  0  0  0  0  0  0  0
   -1.7321   -0.5000   -0.0000 C   0  0  0  0  0  0  0  0  0  0  0  0
   -0.8660   -2.0000   -0.0000 C   0  0  0  0  0  0  0  0  0  0  0  0
   10.4787    0.7273   -0.0000 C   0  0  0  0  0  0  0  0  0  0  0  0
   -1.7321   -1.5000   -0.0000 C   0  0  0  0  0  0  0  0  0  0  0  0
   -2.5981    0.0000   -0.0000 C   0  0  0  0  0  0  0  0  0  0  0  0
   -0.8660   -3.0000   -0.0000 C   0  0  0  0  0  0  0  0  0  0  0  0
   -3.0981   -0.8660   -0.0000 C   0  0  0  0  0  0  0  0  0  0  0  0
   -3.4641    0.5000   -0.0000 C   0  0  0  0  0  0  0  0  0  0  0  0
   -2.0981    0.8660   -0.0000 C   0  0  0  0  0  0  0  0  0  0  0  0
    0.1340   -3.0000   -0.0000 C   0  0  0  0  0  0  0  0  0  0  0  0
   -0.8660   -4.0000   -0.0000 C   0  0  0  0  0  0  0  0  0  0  0  0
   -1.8660   -3.0000   -0.0000 C   0  0  0  0  0  0  0  0  0  0  0  0
  1  2  1  0  0  0  0
  1  3  1  0  0  0  0
  2  4  2  0  0  0  0
  2  5  1  0  0  0  0
  3  6  2  0  0  0  0
  5  7  2  0  0  0  0
  5  8  1  0  0  0  0
  6  9  1  0  0  0  0
  8 10  1  0  0  0  0
  9 11  1  0  0  0  0
  9 12  2  0  0  0  0
 10 13  2  0  0  0  0
 11 14  2  0  0  0  0
 11 15  1  0  0  0  0
 12 16  1  0  0  0  0
 13 17  1  0  0  0  0
 15 18  1  0  0  0  0
 16 19  1  0  0  0  0
 17 20  2  0  0  0  0
 17 21  1  0  0  0  0
 18 22  1  0  0  0  0
 19 23  2  0  0  0  0
 20 24  1  0  0  0  0
 20 25  1  0  0  0  0
 21 26  2  0  0  0  0
 22 27  2  0  0  0  0
 25 28  2  0  0  0  0
 25 29  1  0  0  0  0
 26 30  1  0  0  0  0
 29 31  1  0  0  0  0
 29 32  1  0  0  0  0
 29 33  1  0  0  0  0
 30 34  1  0  0  0  0
 30 35  1  0  0  0  0
 30 36  1  0  0  0  0
  4  6  1  0  0  0  0
 16 18  2  0  0  0  0
 23 27  1  0  0  0  0
 26 28  1  0  0  0  0
M  END
>  <S/N>
273

>  <Compound ID>
C_288

>  <PubChem CID>
137001843

>  <Isomeric SMILES>
CC(C)(C)C1=CC(=C(C(=C1)C(C)(C)C)O)/C=N/NC(=O)C2=NC(=CS2)C3=CC4=CC=CC=C4OC3=O

>  <IC50 (�M)>
6.2

>  <pIC50>
5.21

$$$$
C_289
Actelion Java MolfileCreator 1.0

 30 33  0  0  0  0  0  0  0  0999 V2000
    5.1962    2.5000   -0.0000 Cl  0  0  0  0  0  0  0  0  0  0  0  0
    5.1962    1.5000   -0.0000 C   0  0  0  0  0  0  0  0  0  0  0  0
    4.3301    1.0000   -0.0000 C   0  0  0  0  0  0  0  0  0  0  0  0
    6.0622    1.0000   -0.0000 C   0  0  0  0  0  0  0  0  0  0  0  0
    3.4641    1.5000   -0.0000 O   0  0  0  0  0  0  0  0  0  0  0  0
    4.3301   -0.0000   -0.0000 C   0  0  0  0  0  0  0  0  0  0  0  0
    6.0622   -0.0000   -0.0000 C   0  0  0  0  0  0  0  0  0  0  0  0
    5.1962   -0.5000   -0.0000 C   0  0  0  0  0  0  0  0  0  0  0  0
    3.4641   -0.5000   -0.0000 C   0  0  0  0  0  0  0  0  0  0  0  0
    6.9282   -0.5000   -0.0000 Cl  0  0  0  0  0  0  0  0  0  0  0  0
    2.5981   -0.0000   -0.0000 N   0  0  0  0  0  0  0  0  0  0  0  0
    1.7321   -0.5000   -0.0000 N   0  0  0  0  0  0  0  0  0  0  0  0
    0.8660   -0.0000   -0.0000 C   0  0  0  0  0  0  0  0  0  0  0  0
    0.8660    1.0000   -0.0000 O   0  0  0  0  0  0  0  0  0  0  0  0
    0.0000   -0.5000   -0.0000 C   0  0  0  0  0  0  0  0  0  0  0  0
   -0.9135   -0.0933   -0.0000 S   0  0  0  0  0  0  0  0  0  0  0  0
   -0.1045   -1.4945   -0.0000 N   0  0  0  0  0  0  0  0  0  0  0  0
   -1.5827   -0.8364   -0.0000 C   0  0  0  0  0  0  0  0  0  0  0  0
   -1.0827   -1.7024   -0.0000 C   0  0  0  0  0  0  0  0  0  0  0  0
   -1.4894   -2.6160   -0.0000 C   0  0  0  0  0  0  0  0  0  0  0  0
   -2.4839   -2.7205   -0.0000 C   0  0  0  0  0  0  0  0  0  0  0  0
   -0.9016   -3.4250   -0.0000 C   0  0  0  0  0  0  0  0  0  0  0  0
   -3.0717   -1.9115   -0.0000 O   0  0  0  0  0  0  0  0  0  0  0  0
   -2.8907   -3.6341   -0.0000 O   0  0  0  0  0  0  0  0  0  0  0  0
   -1.3084   -4.3385   -0.0000 C   0  0  0  0  0  0  0  0  0  0  0  0
   -2.3029   -4.4431   -0.0000 C   0  0  0  0  0  0  0  0  0  0  0  0
   -0.7206   -5.1476   -0.0000 C   0  0  0  0  0  0  0  0  0  0  0  0
   -2.7096   -5.3566   -0.0000 C   0  0  0  0  0  0  0  0  0  0  0  0
   -1.1273   -6.0611   -0.0000 C   0  0  0  0  0  0  0  0  0  0  0  0
   -2.1218   -6.1656   -0.0000 C   0  0  0  0  0  0  0  0  0  0  0  0
  1  2  1  0  0  0  0
  2  3  2  0  0  0  0
  2  4  1  0  0  0  0
  3  5  1  0  0  0  0
  3  6  1  0  0  0  0
  4  7  2  0  0  0  0
  6  8  2  0  0  0  0
  6  9  1  0  0  0  0
  7 10  1  0  0  0  0
  9 11  2  0  0  0  0
 11 12  1  0  0  0  0
 12 13  1  0  0  0  0
 13 14  2  0  0  0  0
 13 15  1  0  0  0  0
 15 16  1  0  0  0  0
 15 17  2  0  0  0  0
 16 18  1  0  0  0  0
 17 19  1  0  0  0  0
 19 20  1  0  0  0  0
 20 21  1  0  0  0  0
 20 22  2  0  0  0  0
 21 23  2  0  0  0  0
 21 24  1  0  0  0  0
 22 25  1  0  0  0  0
 24 26  1  0  0  0  0
 25 27  2  0  0  0  0
 26 28  2  0  0  0  0
 27 29  1  0  0  0  0
 28 30  1  0  0  0  0
  7  8  1  0  0  0  0
 18 19  2  0  0  0  0
 25 26  1  0  0  0  0
 29 30  2  0  0  0  0
M  END
>  <S/N>
274

>  <Compound ID>
C_289

>  <PubChem CID>
137001844

>  <Isomeric SMILES>
C1=CC=C2C(=C1)C=C(C(=O)O2)C3=CSC(=N3)C(=O)N/N=C/C4=C(C(=CC(=C4)Cl)Cl)O

>  <IC50 (�M)>
6.2

>  <pIC50>
5.21

$$$$
C_290
Actelion Java MolfileCreator 1.0

 29 32  0  0  0  0  0  0  0  0999 V2000
    4.4347    0.9945   -0.0000 S   0  0  0  0  0  0  0  0  0  0  0  0
    4.3301   -0.0000   -0.0000 C   0  0  0  0  0  0  0  0  0  0  0  0
    5.4128    1.2024   -0.0000 C   0  0  0  0  0  0  0  0  0  0  0  0
    5.2437   -0.4067   -0.0000 N   0  0  0  0  0  0  0  0  0  0  0  0
    3.4641   -0.5000   -0.0000 C   0  0  0  0  0  0  0  0  0  0  0  0
    5.9128    0.3364   -0.0000 C   0  0  0  0  0  0  0  0  0  0  0  0
    3.4641   -1.5000   -0.0000 O   0  0  0  0  0  0  0  0  0  0  0  0
    2.5981   -0.0000   -0.0000 N   0  0  0  0  0  0  0  0  0  0  0  0
    6.9073    0.2319   -0.0000 C   0  0  0  0  0  0  0  0  0  0  0  0
    1.7321   -0.5000   -0.0000 N   0  0  0  0  0  0  0  0  0  0  0  0
    7.3141   -0.6817   -0.0000 C   0  0  0  0  0  0  0  0  0  0  0  0
    7.4951    1.0409   -0.0000 C   0  0  0  0  0  0  0  0  0  0  0  0
    0.8660   -0.0000   -0.0000 C   0  0  0  0  0  0  0  0  0  0  0  0
    6.7263   -1.4907   -0.0000 O   0  0  0  0  0  0  0  0  0  0  0  0
    8.3086   -0.7862   -0.0000 O   0  0  0  0  0  0  0  0  0  0  0  0
    8.4896    0.9364   -0.0000 C   0  0  0  0  0  0  0  0  0  0  0  0
    0.0000   -0.5000   -0.0000 C   0  0  0  0  0  0  0  0  0  0  0  0
    8.8964    0.0228   -0.0000 C   0  0  0  0  0  0  0  0  0  0  0  0
    9.0774    1.7454   -0.0000 C   0  0  0  0  0  0  0  0  0  0  0  0
   -0.8660    0.0000   -0.0000 C   0  0  0  0  0  0  0  0  0  0  0  0
   -0.0000   -1.5000   -0.0000 C   0  0  0  0  0  0  0  0  0  0  0  0
    9.8909   -0.0817   -0.0000 C   0  0  0  0  0  0  0  0  0  0  0  0
   10.0719    1.6409   -0.0000 C   0  0  0  0  0  0  0  0  0  0  0  0
   -1.7321   -0.5000   -0.0000 C   0  0  0  0  0  0  0  0  0  0  0  0
   -0.8660   -2.0000   -0.0000 C   0  0  0  0  0  0  0  0  0  0  0  0
   10.4787    0.7273   -0.0000 C   0  0  0  0  0  0  0  0  0  0  0  0
   -2.5981    0.0000   -0.0000 F   0  0  0  0  0  0  0  0  0  0  0  0
   -1.7321   -1.5000   -0.0000 C   0  0  0  0  0  0  0  0  0  0  0  0
   -2.5981   -2.0000   -0.0000 O   0  0  0  0  0  0  0  0  0  0  0  0
  1  2  1  0  0  0  0
  1  3  1  0  0  0  0
  2  4  2  0  0  0  0
  2  5  1  0  0  0  0
  3  6  2  0  0  0  0
  5  7  2  0  0  0  0
  5  8  1  0  0  0  0
  6  9  1  0  0  0  0
  8 10  1  0  0  0  0
  9 11  1  0  0  0  0
  9 12  2  0  0  0  0
 10 13  2  0  0  0  0
 11 14  2  0  0  0  0
 11 15  1  0  0  0  0
 12 16  1  0  0  0  0
 13 17  1  0  0  0  0
 15 18  1  0  0  0  0
 16 19  1  0  0  0  0
 17 20  2  0  0  0  0
 17 21  1  0  0  0  0
 18 22  1  0  0  0  0
 19 23  2  0  0  0  0
 20 24  1  0  0  0  0
 21 25  2  0  0  0  0
 22 26  2  0  0  0  0
 24 27  1  0  0  0  0
 24 28  2  0  0  0  0
 28 29  1  0  0  0  0
  4  6  1  0  0  0  0
 16 18  2  0  0  0  0
 23 26  1  0  0  0  0
 25 28  1  0  0  0  0
M  END
>  <S/N>
275

>  <Compound ID>
C_290

>  <PubChem CID>
137001845

>  <Isomeric SMILES>
C1=CC=C2C(=C1)C=C(C(=O)O2)C3=CSC(=N3)C(=O)N/N=C/C4=CC(=C(C=C4)O)F

>  <IC50 (�M)>
6.2

>  <pIC50>
5.21

$$$$
C_291
Actelion Java MolfileCreator 1.0

 29 32  0  0  0  0  0  0  0  0999 V2000
    7.7942    3.7500   -0.0000 Cl  0  0  0  0  0  0  0  0  0  0  0  0
    7.7942    2.2500   -0.0000 C   0  0  0  0  0  0  0  0  0  0  0  0
    6.4952    1.5000   -0.0000 C   0  0  0  0  0  0  0  0  0  0  0  0
    9.0933    1.5000   -0.0000 C   0  0  0  0  0  0  0  0  0  0  0  0
    6.4952   -0.0000   -0.0000 C   0  0  0  0  0  0  0  0  0  0  0  0
    9.0933   -0.0000   -0.0000 C   0  0  0  0  0  0  0  0  0  0  0  0
    7.7942   -0.7500   -0.0000 C   0  0  0  0  0  0  0  0  0  0  0  0
    5.1962   -0.7500   -0.0000 C   0  0  0  0  0  0  0  0  0  0  0  0
    7.7942   -2.2500   -0.0000 O   0  0  0  0  0  0  0  0  0  0  0  0
    3.8971   -0.0000   -0.0000 N   0  0  0  0  0  0  0  0  0  0  0  0
    2.5981   -0.7500   -0.0000 N   0  0  0  0  0  0  0  0  0  0  0  0
    1.2990   -0.0000   -0.0000 C   0  0  0  0  0  0  0  0  0  0  0  0
    1.2990    1.5000   -0.0000 O   0  0  0  0  0  0  0  0  0  0  0  0
    0.0000   -0.7500   -0.0000 C   0  0  0  0  0  0  0  0  0  0  0  0
   -1.3703   -0.1399   -0.0000 S   0  0  0  0  0  0  0  0  0  0  0  0
   -0.1568   -2.2418   -0.0000 N   0  0  0  0  0  0  0  0  0  0  0  0
   -2.3740   -1.2546   -0.0000 C   0  0  0  0  0  0  0  0  0  0  0  0
   -1.6240   -2.5537   -0.0000 C   0  0  0  0  0  0  0  0  0  0  0  0
   -2.2341   -3.9240   -0.0000 C   0  0  0  0  0  0  0  0  0  0  0  0
   -3.7259   -4.0808   -0.0000 C   0  0  0  0  0  0  0  0  0  0  0  0
   -1.3524   -5.1375   -0.0000 C   0  0  0  0  0  0  0  0  0  0  0  0
   -4.6076   -2.8672   -0.0000 O   0  0  0  0  0  0  0  0  0  0  0  0
   -4.3360   -5.4511   -0.0000 O   0  0  0  0  0  0  0  0  0  0  0  0
   -1.9625   -6.5078   -0.0000 C   0  0  0  0  0  0  0  0  0  0  0  0
   -3.4543   -6.6646   -0.0000 C   0  0  0  0  0  0  0  0  0  0  0  0
   -1.0809   -7.7213   -0.0000 C   0  0  0  0  0  0  0  0  0  0  0  0
   -4.0644   -8.0349   -0.0000 C   0  0  0  0  0  0  0  0  0  0  0  0
   -1.6910   -9.0917   -0.0000 C   0  0  0  0  0  0  0  0  0  0  0  0
   -3.1828   -9.2484   -0.0000 C   0  0  0  0  0  0  0  0  0  0  0  0
  1  2  1  0  0  0  0
  2  3  2  0  0  0  0
  2  4  1  0  0  0  0
  3  5  1  0  0  0  0
  4  6  2  0  0  0  0
  5  7  2  0  0  0  0
  5  8  1  0  0  0  0
  7  9  1  0  0  0  0
  8 10  2  0  0  0  0
 10 11  1  0  0  0  0
 11 12  1  0  0  0  0
 12 13  2  0  0  0  0
 12 14  1  0  0  0  0
 14 15  1  0  0  0  0
 14 16  2  0  0  0  0
 15 17  1  0  0  0  0
 16 18  1  0  0  0  0
 18 19  1  0  0  0  0
 19 20  1  0  0  0  0
 19 21  2  0  0  0  0
 20 22  2  0  0  0  0
 20 23  1  0  0  0  0
 21 24  1  0  0  0  0
 23 25  1  0  0  0  0
 24 26  2  0  0  0  0
 25 27  2  0  0  0  0
 26 28  1  0  0  0  0
 27 29  1  0  0  0  0
  6  7  1  0  0  0  0
 17 18  2  0  0  0  0
 24 25  1  0  0  0  0
 28 29  2  0  0  0  0
M  END
>  <S/N>
276

>  <Compound ID>
C_291

>  <PubChem CID>
137001846

>  <Isomeric SMILES>
C1=CC=C2C(=C1)C=C(C(=O)O2)C3=CSC(=N3)C(=O)N/N=C/C4=C(C=CC(=C4)Cl)O

>  <IC50 (�M)>
6.2

>  <pIC50>
5.21

$$$$
C_292
Actelion Java MolfileCreator 1.0

 30 33  0  0  0  0  0  0  0  0999 V2000
    4.4347    0.9945   -0.0000 S   0  0  0  0  0  0  0  0  0  0  0  0
    4.3301   -0.0000   -0.0000 C   0  0  0  0  0  0  0  0  0  0  0  0
    5.4128    1.2024   -0.0000 C   0  0  0  0  0  0  0  0  0  0  0  0
    5.2437   -0.4067   -0.0000 N   0  0  0  0  0  0  0  0  0  0  0  0
    3.4641   -0.5000   -0.0000 C   0  0  0  0  0  0  0  0  0  0  0  0
    5.9128    0.3364   -0.0000 C   0  0  0  0  0  0  0  0  0  0  0  0
    3.4641   -1.5000   -0.0000 O   0  0  0  0  0  0  0  0  0  0  0  0
    2.5981   -0.0000   -0.0000 N   0  0  0  0  0  0  0  0  0  0  0  0
    6.9073    0.2319   -0.0000 C   0  0  0  0  0  0  0  0  0  0  0  0
    1.7321   -0.5000   -0.0000 N   0  0  0  0  0  0  0  0  0  0  0  0
    7.3141   -0.6817   -0.0000 C   0  0  0  0  0  0  0  0  0  0  0  0
    7.4951    1.0409   -0.0000 C   0  0  0  0  0  0  0  0  0  0  0  0
    0.8660   -0.0000   -0.0000 C   0  0  0  0  0  0  0  0  0  0  0  0
    6.7263   -1.4907   -0.0000 O   0  0  0  0  0  0  0  0  0  0  0  0
    8.3086   -0.7862   -0.0000 O   0  0  0  0  0  0  0  0  0  0  0  0
    8.4896    0.9364   -0.0000 C   0  0  0  0  0  0  0  0  0  0  0  0
    0.0000   -0.5000   -0.0000 C   0  0  0  0  0  0  0  0  0  0  0  0
    8.8964    0.0228   -0.0000 C   0  0  0  0  0  0  0  0  0  0  0  0
    9.0774    1.7454   -0.0000 C   0  0  0  0  0  0  0  0  0  0  0  0
   -0.8660    0.0000   -0.0000 C   0  0  0  0  0  0  0  0  0  0  0  0
   -0.0000   -1.5000   -0.0000 C   0  0  0  0  0  0  0  0  0  0  0  0
    9.8909   -0.0817   -0.0000 C   0  0  0  0  0  0  0  0  0  0  0  0
   10.0719    1.6409   -0.0000 C   0  0  0  0  0  0  0  0  0  0  0  0
   -0.8660    1.0000   -0.0000 O   0  0  0  0  0  0  0  0  0  0  0  0
   -1.7321   -0.5000   -0.0000 C   0  0  0  0  0  0  0  0  0  0  0  0
   -0.8660   -2.0000   -0.0000 C   0  0  0  0  0  0  0  0  0  0  0  0
   10.4787    0.7273   -0.0000 C   0  0  0  0  0  0  0  0  0  0  0  0
   -1.7321   -1.5000   -0.0000 C   0  0  0  0  0  0  0  0  0  0  0  0
   -2.5981   -2.0000   -0.0000 O   0  0  0  0  0  0  0  0  0  0  0  0
   -2.5981   -3.0000   -0.0000 C   0  0  0  0  0  0  0  0  0  0  0  0
  1  2  1  0  0  0  0
  1  3  1  0  0  0  0
  2  4  2  0  0  0  0
  2  5  1  0  0  0  0
  3  6  2  0  0  0  0
  5  7  2  0  0  0  0
  5  8  1  0  0  0  0
  6  9  1  0  0  0  0
  8 10  1  0  0  0  0
  9 11  1  0  0  0  0
  9 12  2  0  0  0  0
 10 13  2  0  0  0  0
 11 14  2  0  0  0  0
 11 15  1  0  0  0  0
 12 16  1  0  0  0  0
 13 17  1  0  0  0  0
 15 18  1  0  0  0  0
 16 19  1  0  0  0  0
 17 20  2  0  0  0  0
 17 21  1  0  0  0  0
 18 22  1  0  0  0  0
 19 23  2  0  0  0  0
 20 24  1  0  0  0  0
 20 25  1  0  0  0  0
 21 26  2  0  0  0  0
 22 27  2  0  0  0  0
 25 28  2  0  0  0  0
 28 29  1  0  0  0  0
 29 30  1  0  0  0  0
  4  6  1  0  0  0  0
 16 18  2  0  0  0  0
 23 27  1  0  0  0  0
 26 28  1  0  0  0  0
M  END
>  <S/N>
277

>  <Compound ID>
C_292

>  <PubChem CID>
137001847

>  <Isomeric SMILES>
COC1=CC(=C(C=C1)/C=N/NC(=O)C2=NC(=CS2)C3=CC4=CC=CC=C4OC3=O)O

>  <IC50 (�M)>
6.2

>  <pIC50>
5.21

$$$$
C_293
Actelion Java MolfileCreator 1.0

 29 32  0  0  0  0  0  0  0  0999 V2000
    4.4347    0.9945   -0.0000 S   0  0  0  0  0  0  0  0  0  0  0  0
    4.3301   -0.0000   -0.0000 C   0  0  0  0  0  0  0  0  0  0  0  0
    5.4128    1.2024   -0.0000 C   0  0  0  0  0  0  0  0  0  0  0  0
    5.2437   -0.4067   -0.0000 N   0  0  0  0  0  0  0  0  0  0  0  0
    3.4641   -0.5000   -0.0000 C   0  0  0  0  0  0  0  0  0  0  0  0
    5.9128    0.3364   -0.0000 C   0  0  0  0  0  0  0  0  0  0  0  0
    3.4641   -1.5000   -0.0000 O   0  0  0  0  0  0  0  0  0  0  0  0
    2.5981   -0.0000   -0.0000 N   0  0  0  0  0  0  0  0  0  0  0  0
    6.9073    0.2319   -0.0000 C   0  0  0  0  0  0  0  0  0  0  0  0
    1.7321   -0.5000   -0.0000 N   0  0  0  0  0  0  0  0  0  0  0  0
    7.3141   -0.6817   -0.0000 C   0  0  0  0  0  0  0  0  0  0  0  0
    7.4951    1.0409   -0.0000 C   0  0  0  0  0  0  0  0  0  0  0  0
    0.8660   -0.0000   -0.0000 C   0  0  0  0  0  0  0  0  0  0  0  0
    6.7263   -1.4907   -0.0000 O   0  0  0  0  0  0  0  0  0  0  0  0
    8.3086   -0.7862   -0.0000 O   0  0  0  0  0  0  0  0  0  0  0  0
    8.4896    0.9364   -0.0000 C   0  0  0  0  0  0  0  0  0  0  0  0
    0.0000   -0.5000   -0.0000 C   0  0  0  0  0  0  0  0  0  0  0  0
    8.8964    0.0228   -0.0000 C   0  0  0  0  0  0  0  0  0  0  0  0
    9.0774    1.7454   -0.0000 C   0  0  0  0  0  0  0  0  0  0  0  0
   -0.8660    0.0000   -0.0000 C   0  0  0  0  0  0  0  0  0  0  0  0
   -0.0000   -1.5000   -0.0000 C   0  0  0  0  0  0  0  0  0  0  0  0
    9.8909   -0.0817   -0.0000 C   0  0  0  0  0  0  0  0  0  0  0  0
   10.0719    1.6409   -0.0000 C   0  0  0  0  0  0  0  0  0  0  0  0
   -1.7321   -0.5000   -0.0000 C   0  0  0  0  0  0  0  0  0  0  0  0
   -0.8660   -2.0000   -0.0000 C   0  0  0  0  0  0  0  0  0  0  0  0
   10.4787    0.7273   -0.0000 C   0  0  0  0  0  0  0  0  0  0  0  0
   -2.5981    0.0000   -0.0000 O   0  0  0  0  0  0  0  0  0  0  0  0
   -1.7321   -1.5000   -0.0000 C   0  0  0  0  0  0  0  0  0  0  0  0
   -2.5981   -2.0000   -0.0000 O   0  0  0  0  0  0  0  0  0  0  0  0
  1  2  1  0  0  0  0
  1  3  1  0  0  0  0
  2  4  2  0  0  0  0
  2  5  1  0  0  0  0
  3  6  2  0  0  0  0
  5  7  2  0  0  0  0
  5  8  1  0  0  0  0
  6  9  1  0  0  0  0
  8 10  1  0  0  0  0
  9 11  1  0  0  0  0
  9 12  2  0  0  0  0
 10 13  2  0  0  0  0
 11 14  2  0  0  0  0
 11 15  1  0  0  0  0
 12 16  1  0  0  0  0
 13 17  1  0  0  0  0
 15 18  1  0  0  0  0
 16 19  1  0  0  0  0
 17 20  2  0  0  0  0
 17 21  1  0  0  0  0
 18 22  1  0  0  0  0
 19 23  2  0  0  0  0
 20 24  1  0  0  0  0
 21 25  2  0  0  0  0
 22 26  2  0  0  0  0
 24 27  1  0  0  0  0
 24 28  2  0  0  0  0
 28 29  1  0  0  0  0
  4  6  1  0  0  0  0
 16 18  2  0  0  0  0
 23 26  1  0  0  0  0
 25 28  1  0  0  0  0
M  END
>  <S/N>
278

>  <Compound ID>
C_293

>  <PubChem CID>
137001849

>  <Isomeric SMILES>
C1=CC=C2C(=C1)C=C(C(=O)O2)C3=CSC(=N3)C(=O)N/N=C/C4=CC(=C(C=C4)O)O

>  <IC50 (�M)>
6.2

>  <pIC50>
5.21

$$$$
C_294
Actelion Java MolfileCreator 1.0

 23 25  0  0  0  0  0  0  0  0999 V2000
    6.4952   -0.0000   -0.0000 O   0  0  0  0  0  0  0  0  0  0  0  0
    5.1962   -0.7500   -0.0000 C   0  0  0  0  0  0  0  0  0  0  0  0
    3.8971   -0.0000   -0.0000 N   0  0  0  0  0  0  0  0  0  0  0  0
    5.1962   -2.2500   -0.0000 C   0  0  0  0  0  0  0  0  0  0  0  0
    2.5981   -0.7500   -0.0000 N   0  0  0  0  0  0  0  0  0  0  0  0
    3.9826   -3.1317   -0.0000 N   0  0  0  0  0  0  0  0  0  0  0  0
    6.4097   -3.1317   -0.0000 C   0  0  0  0  0  0  0  0  0  0  0  0
    1.2990   -0.0000   -0.0000 C   0  0  0  0  0  0  0  0  0  0  0  0
    4.4462   -4.5583   -0.0000 C   0  0  0  0  0  0  0  0  0  0  0  0
    5.9462   -4.5583   -0.0000 C   0  0  0  0  0  0  0  0  0  0  0  0
    0.0000   -0.7500   -0.0000 C   0  0  0  0  0  0  0  0  0  0  0  0
    3.6962   -5.8573   -0.0000 C   0  0  0  0  0  0  0  0  0  0  0  0
    6.6962   -5.8573   -0.0000 C   0  0  0  0  0  0  0  0  0  0  0  0
   -1.2990    0.0000   -0.0000 C   0  0  0  0  0  0  0  0  0  0  0  0
   -0.0000   -2.2500   -0.0000 C   0  0  0  0  0  0  0  0  0  0  0  0
    4.4462   -7.1563   -0.0000 C   0  0  0  0  0  0  0  0  0  0  0  0
    5.9462   -7.1563   -0.0000 C   0  0  0  0  0  0  0  0  0  0  0  0
   -2.5981   -0.7500   -0.0000 C   0  0  0  0  0  0  0  0  0  0  0  0
   -1.2990   -3.0000   -0.0000 C   0  0  0  0  0  0  0  0  0  0  0  0
   -3.8971    0.0000   -0.0000 O   0  0  0  0  0  0  0  0  0  0  0  0
   -2.5981   -2.2500   -0.0000 C   0  0  0  0  0  0  0  0  0  0  0  0
   -1.2990   -4.5000   -0.0000 O   0  0  0  0  0  0  0  0  0  0  0  0
   -3.8971   -3.0000   -0.0000 O   0  0  0  0  0  0  0  0  0  0  0  0
  1  2  2  0  0  0  0
  2  3  1  0  0  0  0
  2  4  1  0  0  0  0
  3  5  1  0  0  0  0
  4  6  1  0  0  0  0
  4  7  2  0  0  0  0
  5  8  2  0  0  0  0
  6  9  1  0  0  0  0
  7 10  1  0  0  0  0
  8 11  1  0  0  0  0
  9 12  1  0  0  0  0
 10 13  1  0  0  0  0
 11 14  2  0  0  0  0
 11 15  1  0  0  0  0
 12 16  2  0  0  0  0
 13 17  2  0  0  0  0
 14 18  1  0  0  0  0
 15 19  2  0  0  0  0
 18 20  1  0  0  0  0
 18 21  2  0  0  0  0
 19 22  1  0  0  0  0
 21 23  1  0  0  0  0
  9 10  2  0  0  0  0
 16 17  1  0  0  0  0
 19 21  1  0  0  0  0
M  END
>  <S/N>
279

>  <Compound ID>
C_294

>  <PubChem CID>
137014966

>  <Isomeric SMILES>
C1=CC=C2C(=C1)C=C(N2)C(=O)N/N=C/C3=CC(=C(C(=C3)O)O)O

>  <IC50 (�M)>
2.3

>  <pIC50>
5.64

$$$$
C_295
Actelion Java MolfileCreator 1.0

 23 25  0  0  0  0  0  0  0  0999 V2000
    6.4952   -0.0000   -0.0000 O   0  0  0  0  0  0  0  0  0  0  0  0
    5.1962   -0.7500   -0.0000 C   0  0  0  0  0  0  0  0  0  0  0  0
    3.8971   -0.0000   -0.0000 N   0  0  0  0  0  0  0  0  0  0  0  0
    5.1962   -2.2500   -0.0000 C   0  0  0  0  0  0  0  0  0  0  0  0
    2.5981   -0.7500   -0.0000 N   0  0  0  0  0  0  0  0  0  0  0  0
    3.9826   -3.1317   -0.0000 N   0  0  0  0  0  0  0  0  0  0  0  0
    6.4097   -3.1317   -0.0000 C   0  0  0  0  0  0  0  0  0  0  0  0
    1.2990   -0.0000   -0.0000 C   0  0  0  0  0  0  0  0  0  0  0  0
    4.4462   -4.5583   -0.0000 C   0  0  0  0  0  0  0  0  0  0  0  0
    5.9462   -4.5583   -0.0000 C   0  0  0  0  0  0  0  0  0  0  0  0
    0.0000   -0.7500   -0.0000 C   0  0  0  0  0  0  0  0  0  0  0  0
    3.6962   -5.8573   -0.0000 C   0  0  0  0  0  0  0  0  0  0  0  0
    6.6962   -5.8573   -0.0000 C   0  0  0  0  0  0  0  0  0  0  0  0
   -1.2990    0.0000   -0.0000 C   0  0  0  0  0  0  0  0  0  0  0  0
   -0.0000   -2.2500   -0.0000 C   0  0  0  0  0  0  0  0  0  0  0  0
    4.4462   -7.1563   -0.0000 C   0  0  0  0  0  0  0  0  0  0  0  0
    5.9462   -7.1563   -0.0000 C   0  0  0  0  0  0  0  0  0  0  0  0
   -1.2990    1.5000   -0.0000 O   0  0  0  0  0  0  0  0  0  0  0  0
   -2.5981   -0.7500   -0.0000 C   0  0  0  0  0  0  0  0  0  0  0  0
    1.2990   -3.0000   -0.0000 O   0  0  0  0  0  0  0  0  0  0  0  0
   -1.2990   -3.0000   -0.0000 C   0  0  0  0  0  0  0  0  0  0  0  0
   -2.5981   -2.2500   -0.0000 C   0  0  0  0  0  0  0  0  0  0  0  0
   -3.8971   -3.0000   -0.0000 O   0  0  0  0  0  0  0  0  0  0  0  0
  1  2  2  0  0  0  0
  2  3  1  0  0  0  0
  2  4  1  0  0  0  0
  3  5  1  0  0  0  0
  4  6  1  0  0  0  0
  4  7  2  0  0  0  0
  5  8  2  0  0  0  0
  6  9  1  0  0  0  0
  7 10  1  0  0  0  0
  8 11  1  0  0  0  0
  9 12  1  0  0  0  0
 10 13  1  0  0  0  0
 11 14  2  0  0  0  0
 11 15  1  0  0  0  0
 12 16  2  0  0  0  0
 13 17  2  0  0  0  0
 14 18  1  0  0  0  0
 14 19  1  0  0  0  0
 15 20  1  0  0  0  0
 15 21  2  0  0  0  0
 19 22  2  0  0  0  0
 22 23  1  0  0  0  0
  9 10  2  0  0  0  0
 16 17  1  0  0  0  0
 21 22  1  0  0  0  0
M  END
>  <S/N>
280

>  <Compound ID>
C_295

>  <PubChem CID>
137014967

>  <Isomeric SMILES>
C1=CC=C2C(=C1)C=C(N2)C(=O)N/N=C/C3=C(C=C(C=C3O)O)O

>  <IC50 (�M)>
2.3

>  <pIC50>
5.64

$$$$
C_296
Actelion Java MolfileCreator 1.0

 22 24  0  0  0  0  0  0  0  0999 V2000
    6.4952   -0.0000   -0.0000 O   0  0  0  0  0  0  0  0  0  0  0  0
    5.1962   -0.7500   -0.0000 C   0  0  0  0  0  0  0  0  0  0  0  0
    3.8971   -0.0000   -0.0000 N   0  0  0  0  0  0  0  0  0  0  0  0
    5.1962   -2.2500   -0.0000 C   0  0  0  0  0  0  0  0  0  0  0  0
    2.5981   -0.7500   -0.0000 N   0  0  0  0  0  0  0  0  0  0  0  0
    3.9826   -3.1317   -0.0000 N   0  0  0  0  0  0  0  0  0  0  0  0
    6.4097   -3.1317   -0.0000 C   0  0  0  0  0  0  0  0  0  0  0  0
    1.2990   -0.0000   -0.0000 C   0  0  0  0  0  0  0  0  0  0  0  0
    4.4462   -4.5583   -0.0000 C   0  0  0  0  0  0  0  0  0  0  0  0
    5.9462   -4.5583   -0.0000 C   0  0  0  0  0  0  0  0  0  0  0  0
    0.0000   -0.7500   -0.0000 C   0  0  0  0  0  0  0  0  0  0  0  0
    3.6962   -5.8573   -0.0000 C   0  0  0  0  0  0  0  0  0  0  0  0
    6.6962   -5.8573   -0.0000 C   0  0  0  0  0  0  0  0  0  0  0  0
   -1.2990    0.0000   -0.0000 C   0  0  0  0  0  0  0  0  0  0  0  0
   -0.0000   -2.2500   -0.0000 C   0  0  0  0  0  0  0  0  0  0  0  0
    4.4462   -7.1563   -0.0000 C   0  0  0  0  0  0  0  0  0  0  0  0
    5.9462   -7.1563   -0.0000 C   0  0  0  0  0  0  0  0  0  0  0  0
   -1.2990    1.5000   -0.0000 O   0  0  0  0  0  0  0  0  0  0  0  0
   -2.5981   -0.7500   -0.0000 C   0  0  0  0  0  0  0  0  0  0  0  0
   -1.2990   -3.0000   -0.0000 C   0  0  0  0  0  0  0  0  0  0  0  0
   -2.5981   -2.2500   -0.0000 C   0  0  0  0  0  0  0  0  0  0  0  0
   -1.2990   -4.5000   -0.0000 O   0  0  0  0  0  0  0  0  0  0  0  0
  1  2  2  0  0  0  0
  2  3  1  0  0  0  0
  2  4  1  0  0  0  0
  3  5  1  0  0  0  0
  4  6  1  0  0  0  0
  4  7  2  0  0  0  0
  5  8  2  0  0  0  0
  6  9  1  0  0  0  0
  7 10  1  0  0  0  0
  8 11  1  0  0  0  0
  9 12  1  0  0  0  0
 10 13  1  0  0  0  0
 11 14  2  0  0  0  0
 11 15  1  0  0  0  0
 12 16  2  0  0  0  0
 13 17  2  0  0  0  0
 14 18  1  0  0  0  0
 14 19  1  0  0  0  0
 15 20  2  0  0  0  0
 19 21  2  0  0  0  0
 20 22  1  0  0  0  0
  9 10  2  0  0  0  0
 16 17  1  0  0  0  0
 20 21  1  0  0  0  0
M  END
>  <S/N>
281

>  <Compound ID>
C_296

>  <PubChem CID>
137014968

>  <Isomeric SMILES>
C1=CC=C2C(=C1)C=C(N2)C(=O)N/N=C/C3=C(C=CC(=C3)O)O

>  <IC50 (�M)>
2.3

>  <pIC50>
5.64

$$$$
C_297
Actelion Java MolfileCreator 1.0

 22 24  0  0  0  0  0  0  0  0999 V2000
    6.4952   -0.0000   -0.0000 O   0  0  0  0  0  0  0  0  0  0  0  0
    5.1962   -0.7500   -0.0000 C   0  0  0  0  0  0  0  0  0  0  0  0
    3.8971   -0.0000   -0.0000 N   0  0  0  0  0  0  0  0  0  0  0  0
    5.1962   -2.2500   -0.0000 C   0  0  0  0  0  0  0  0  0  0  0  0
    2.5981   -0.7500   -0.0000 N   0  0  0  0  0  0  0  0  0  0  0  0
    3.9826   -3.1317   -0.0000 N   0  0  0  0  0  0  0  0  0  0  0  0
    6.4097   -3.1317   -0.0000 C   0  0  0  0  0  0  0  0  0  0  0  0
    1.2990   -0.0000   -0.0000 C   0  0  0  0  0  0  0  0  0  0  0  0
    4.4462   -4.5583   -0.0000 C   0  0  0  0  0  0  0  0  0  0  0  0
    5.9462   -4.5583   -0.0000 C   0  0  0  0  0  0  0  0  0  0  0  0
    0.0000   -0.7500   -0.0000 C   0  0  0  0  0  0  0  0  0  0  0  0
    3.6962   -5.8573   -0.0000 C   0  0  0  0  0  0  0  0  0  0  0  0
    6.6962   -5.8573   -0.0000 C   0  0  0  0  0  0  0  0  0  0  0  0
   -1.2990    0.0000   -0.0000 C   0  0  0  0  0  0  0  0  0  0  0  0
   -0.0000   -2.2500   -0.0000 C   0  0  0  0  0  0  0  0  0  0  0  0
    4.4462   -7.1563   -0.0000 C   0  0  0  0  0  0  0  0  0  0  0  0
    5.9462   -7.1563   -0.0000 C   0  0  0  0  0  0  0  0  0  0  0  0
   -2.5981   -0.7500   -0.0000 C   0  0  0  0  0  0  0  0  0  0  0  0
   -1.2990   -3.0000   -0.0000 C   0  0  0  0  0  0  0  0  0  0  0  0
   -3.8971    0.0000   -0.0000 O   0  0  0  0  0  0  0  0  0  0  0  0
   -2.5981   -2.2500   -0.0000 C   0  0  0  0  0  0  0  0  0  0  0  0
   -3.8971   -3.0000   -0.0000 O   0  0  0  0  0  0  0  0  0  0  0  0
  1  2  2  0  0  0  0
  2  3  1  0  0  0  0
  2  4  1  0  0  0  0
  3  5  1  0  0  0  0
  4  6  1  0  0  0  0
  4  7  2  0  0  0  0
  5  8  2  0  0  0  0
  6  9  1  0  0  0  0
  7 10  1  0  0  0  0
  8 11  1  0  0  0  0
  9 12  1  0  0  0  0
 10 13  1  0  0  0  0
 11 14  2  0  0  0  0
 11 15  1  0  0  0  0
 12 16  2  0  0  0  0
 13 17  2  0  0  0  0
 14 18  1  0  0  0  0
 15 19  2  0  0  0  0
 18 20  1  0  0  0  0
 18 21  2  0  0  0  0
 21 22  1  0  0  0  0
  9 10  2  0  0  0  0
 16 17  1  0  0  0  0
 19 21  1  0  0  0  0
M  END
>  <S/N>
282

>  <Compound ID>
C_297

>  <PubChem CID>
137014969

>  <Isomeric SMILES>
C1=CC=C2C(=C1)C=C(N2)C(=O)N/N=C/C3=CC(=C(C=C3)O)O

>  <IC50 (�M)>
2.3

>  <pIC50>
5.64

$$$$
C_298
Actelion Java MolfileCreator 1.0

 22 24  0  0  0  0  0  0  0  0999 V2000
    6.4952   -0.0000   -0.0000 O   0  0  0  0  0  0  0  0  0  0  0  0
    5.1962   -0.7500   -0.0000 C   0  0  0  0  0  0  0  0  0  0  0  0
    3.8971   -0.0000   -0.0000 N   0  0  0  0  0  0  0  0  0  0  0  0
    5.1962   -2.2500   -0.0000 C   0  0  0  0  0  0  0  0  0  0  0  0
    2.5981   -0.7500   -0.0000 N   0  0  0  0  0  0  0  0  0  0  0  0
    3.9826   -3.1317   -0.0000 N   0  0  0  0  0  0  0  0  0  0  0  0
    6.4097   -3.1317   -0.0000 C   0  0  0  0  0  0  0  0  0  0  0  0
    1.2990   -0.0000   -0.0000 C   0  0  0  0  0  0  0  0  0  0  0  0
    4.4462   -4.5583   -0.0000 C   0  0  0  0  0  0  0  0  0  0  0  0
    5.9462   -4.5583   -0.0000 C   0  0  0  0  0  0  0  0  0  0  0  0
    0.0000   -0.7500   -0.0000 C   0  0  0  0  0  0  0  0  0  0  0  0
    3.6962   -5.8573   -0.0000 C   0  0  0  0  0  0  0  0  0  0  0  0
    6.6962   -5.8573   -0.0000 C   0  0  0  0  0  0  0  0  0  0  0  0
   -1.2990    0.0000   -0.0000 C   0  0  0  0  0  0  0  0  0  0  0  0
   -0.0000   -2.2500   -0.0000 C   0  0  0  0  0  0  0  0  0  0  0  0
    4.4462   -7.1563   -0.0000 C   0  0  0  0  0  0  0  0  0  0  0  0
    5.9462   -7.1563   -0.0000 C   0  0  0  0  0  0  0  0  0  0  0  0
   -1.2990    1.5000   -0.0000 O   0  0  0  0  0  0  0  0  0  0  0  0
   -2.5981   -0.7500   -0.0000 C   0  0  0  0  0  0  0  0  0  0  0  0
   -1.2990   -3.0000   -0.0000 C   0  0  0  0  0  0  0  0  0  0  0  0
   -3.8971    0.0000   -0.0000 O   0  0  0  0  0  0  0  0  0  0  0  0
   -2.5981   -2.2500   -0.0000 C   0  0  0  0  0  0  0  0  0  0  0  0
  1  2  2  0  0  0  0
  2  3  1  0  0  0  0
  2  4  1  0  0  0  0
  3  5  1  0  0  0  0
  4  6  1  0  0  0  0
  4  7  2  0  0  0  0
  5  8  2  0  0  0  0
  6  9  1  0  0  0  0
  7 10  1  0  0  0  0
  8 11  1  0  0  0  0
  9 12  1  0  0  0  0
 10 13  1  0  0  0  0
 11 14  2  0  0  0  0
 11 15  1  0  0  0  0
 12 16  2  0  0  0  0
 13 17  2  0  0  0  0
 14 18  1  0  0  0  0
 14 19  1  0  0  0  0
 15 20  2  0  0  0  0
 19 21  1  0  0  0  0
 19 22  2  0  0  0  0
  9 10  2  0  0  0  0
 16 17  1  0  0  0  0
 20 22  1  0  0  0  0
M  END
>  <S/N>
283

>  <Compound ID>
C_298

>  <PubChem CID>
137014970

>  <Isomeric SMILES>
C1=CC=C2C(=C1)C=C(N2)C(=O)N/N=C/C3=C(C(=CC=C3)O)O

>  <IC50 (�M)>
2.3

>  <pIC50>
5.64

$$$$
C_299
Actelion Java MolfileCreator 1.0

 21 23  0  0  0  0  0  0  0  0999 V2000
    6.4952   -0.0000   -0.0000 O   0  0  0  0  0  0  0  0  0  0  0  0
    5.1962   -0.7500   -0.0000 C   0  0  0  0  0  0  0  0  0  0  0  0
    3.8971   -0.0000   -0.0000 N   0  0  0  0  0  0  0  0  0  0  0  0
    5.1962   -2.2500   -0.0000 C   0  0  0  0  0  0  0  0  0  0  0  0
    2.5981   -0.7500   -0.0000 N   0  0  0  0  0  0  0  0  0  0  0  0
    3.9826   -3.1317   -0.0000 N   0  0  0  0  0  0  0  0  0  0  0  0
    6.4097   -3.1317   -0.0000 C   0  0  0  0  0  0  0  0  0  0  0  0
    1.2990   -0.0000   -0.0000 C   0  0  0  0  0  0  0  0  0  0  0  0
    4.4462   -4.5583   -0.0000 C   0  0  0  0  0  0  0  0  0  0  0  0
    5.9462   -4.5583   -0.0000 C   0  0  0  0  0  0  0  0  0  0  0  0
    0.0000   -0.7500   -0.0000 C   0  0  0  0  0  0  0  0  0  0  0  0
    3.6962   -5.8573   -0.0000 C   0  0  0  0  0  0  0  0  0  0  0  0
    6.6962   -5.8573   -0.0000 C   0  0  0  0  0  0  0  0  0  0  0  0
   -1.2990    0.0000   -0.0000 C   0  0  0  0  0  0  0  0  0  0  0  0
   -0.0000   -2.2500   -0.0000 C   0  0  0  0  0  0  0  0  0  0  0  0
    4.4462   -7.1563   -0.0000 C   0  0  0  0  0  0  0  0  0  0  0  0
    5.9462   -7.1563   -0.0000 C   0  0  0  0  0  0  0  0  0  0  0  0
   -1.2990    1.5000   -0.0000 O   0  0  0  0  0  0  0  0  0  0  0  0
   -2.5981   -0.7500   -0.0000 C   0  0  0  0  0  0  0  0  0  0  0  0
   -1.2990   -3.0000   -0.0000 C   0  0  0  0  0  0  0  0  0  0  0  0
   -2.5981   -2.2500   -0.0000 C   0  0  0  0  0  0  0  0  0  0  0  0
  1  2  2  0  0  0  0
  2  3  1  0  0  0  0
  2  4  1  0  0  0  0
  3  5  1  0  0  0  0
  4  6  1  0  0  0  0
  4  7  2  0  0  0  0
  5  8  2  0  0  0  0
  6  9  1  0  0  0  0
  7 10  1  0  0  0  0
  8 11  1  0  0  0  0
  9 12  1  0  0  0  0
 10 13  1  0  0  0  0
 11 14  2  0  0  0  0
 11 15  1  0  0  0  0
 12 16  2  0  0  0  0
 13 17  2  0  0  0  0
 14 18  1  0  0  0  0
 14 19  1  0  0  0  0
 15 20  2  0  0  0  0
 19 21  2  0  0  0  0
  9 10  2  0  0  0  0
 16 17  1  0  0  0  0
 20 21  1  0  0  0  0
M  END
>  <S/N>
284

>  <Compound ID>
C_299

>  <PubChem CID>
137014971

>  <Isomeric SMILES>
C1=CC=C2C(=C1)C=C(N2)C(=O)N/N=C/C3=CC=CC=C3O

>  <IC50 (�M)>
2.3

>  <pIC50>
5.64

$$$$
C_300
Actelion Java MolfileCreator 1.0

 23 25  0  0  0  0  0  0  0  0999 V2000
    6.4952   -0.0000   -0.0000 O   0  0  0  0  0  0  0  0  0  0  0  0
    5.1962   -0.7500   -0.0000 C   0  0  0  0  0  0  0  0  0  0  0  0
    3.8971   -0.0000   -0.0000 N   0  0  0  0  0  0  0  0  0  0  0  0
    5.1962   -2.2500   -0.0000 C   0  0  0  0  0  0  0  0  0  0  0  0
    2.5981   -0.7500   -0.0000 N   0  0  0  0  0  0  0  0  0  0  0  0
    3.9826   -3.1317   -0.0000 N   0  0  0  0  0  0  0  0  0  0  0  0
    6.4097   -3.1317   -0.0000 C   0  0  0  0  0  0  0  0  0  0  0  0
    1.2990   -0.0000   -0.0000 C   0  0  0  0  0  0  0  0  0  0  0  0
    4.4462   -4.5583   -0.0000 C   0  0  0  0  0  0  0  0  0  0  0  0
    5.9462   -4.5583   -0.0000 C   0  0  0  0  0  0  0  0  0  0  0  0
    0.0000   -0.7500   -0.0000 C   0  0  0  0  0  0  0  0  0  0  0  0
    3.6962   -5.8573   -0.0000 C   0  0  0  0  0  0  0  0  0  0  0  0
    6.6962   -5.8573   -0.0000 C   0  0  0  0  0  0  0  0  0  0  0  0
   -1.2990    0.0000   -0.0000 C   0  0  0  0  0  0  0  0  0  0  0  0
   -0.0000   -2.2500   -0.0000 C   0  0  0  0  0  0  0  0  0  0  0  0
    4.4462   -7.1563   -0.0000 C   0  0  0  0  0  0  0  0  0  0  0  0
    5.9462   -7.1563   -0.0000 C   0  0  0  0  0  0  0  0  0  0  0  0
   -1.2990    1.5000   -0.0000 O   0  0  0  0  0  0  0  0  0  0  0  0
   -2.5981   -0.7500   -0.0000 C   0  0  0  0  0  0  0  0  0  0  0  0
   -1.2990   -3.0000   -0.0000 C   0  0  0  0  0  0  0  0  0  0  0  0
   -2.5981   -2.2500   -0.0000 C   0  0  0  0  0  0  0  0  0  0  0  0
   -1.2990   -4.5000   -0.0000 O   0  0  0  0  0  0  0  0  0  0  0  0
   -0.0000   -5.2500   -0.0000 C   0  0  0  0  0  0  0  0  0  0  0  0
  1  2  2  0  0  0  0
  2  3  1  0  0  0  0
  2  4  1  0  0  0  0
  3  5  1  0  0  0  0
  4  6  1  0  0  0  0
  4  7  2  0  0  0  0
  5  8  2  0  0  0  0
  6  9  1  0  0  0  0
  7 10  1  0  0  0  0
  8 11  1  0  0  0  0
  9 12  1  0  0  0  0
 10 13  1  0  0  0  0
 11 14  2  0  0  0  0
 11 15  1  0  0  0  0
 12 16  2  0  0  0  0
 13 17  2  0  0  0  0
 14 18  1  0  0  0  0
 14 19  1  0  0  0  0
 15 20  2  0  0  0  0
 19 21  2  0  0  0  0
 20 22  1  0  0  0  0
 22 23  1  0  0  0  0
  9 10  2  0  0  0  0
 16 17  1  0  0  0  0
 20 21  1  0  0  0  0
M  END
>  <S/N>
285

>  <Compound ID>
C_300

>  <PubChem CID>
137014972

>  <Isomeric SMILES>
COC1=CC(=C(C=C1)O)/C=N/NC(=O)C2=CC3=CC=CC=C3N2

>  <IC50 (�M)>
2.3

>  <pIC50>
5.64

$$$$
C_301
Actelion Java MolfileCreator 1.0

 27 30  0  0  0  0  0  0  0  0999 V2000
   14.2894   -0.0000   -0.0000 O   0  0  0  0  0  0  0  0  0  0  0  0
   12.9904   -0.7500   -0.0000 C   0  0  0  0  0  0  0  0  0  0  0  0
   11.6913   -0.0000   -0.0000 O   0  0  0  0  0  0  0  0  0  0  0  0
   12.9904   -2.2500   -0.0000 C   0  0  0  0  0  0  0  0  0  0  0  0
   10.3923   -0.7500   -0.0000 C   0  0  0  0  0  0  0  0  0  0  0  0
   11.6913   -3.0000   -0.0000 C   0  0  0  0  0  0  0  0  0  0  0  0
   10.3923   -2.2500   -0.0000 C   0  0  0  0  0  0  0  0  0  0  0  0
    9.0933   -0.0000   -0.0000 C   0  0  0  0  0  0  0  0  0  0  0  0
    9.0933   -3.0000   -0.0000 C   0  0  0  0  0  0  0  0  0  0  0  0
    7.7942   -0.7500   -0.0000 C   0  0  0  0  0  0  0  0  0  0  0  0
    7.7942   -2.2500   -0.0000 C   0  0  0  0  0  0  0  0  0  0  0  0
    6.4952   -0.0000   -0.0000 O   0  0  0  0  0  0  0  0  0  0  0  0
    5.1962   -0.7500   -0.0000 C   0  0  0  0  0  0  0  0  0  0  0  0
    3.8971   -0.0000   -0.0000 C   0  0  0  0  0  0  0  0  0  0  0  0
    3.8971    1.5000   -0.0000 O   0  0  0  0  0  0  0  0  0  0  0  0
    2.5981   -0.7500   -0.0000 N   0  0  0  0  0  0  0  0  0  0  0  0
    1.2990   -0.0000   -0.0000 N   0  0  0  0  0  0  0  0  0  0  0  0
    0.0000   -0.7500   -0.0000 C   0  0  0  0  0  0  0  0  0  0  0  0
   -1.3703   -0.1399   -0.0000 C   0  0  0  0  0  0  0  0  0  0  0  0
   -0.1568   -2.2418   -0.0000 C   0  0  0  0  0  0  0  0  0  0  0  0
   -1.6822    1.3273   -0.0000 O   0  0  0  0  0  0  0  0  0  0  0  0
   -2.3740   -1.2546   -0.0000 N   0  0  0  0  0  0  0  0  0  0  0  0
   -1.6240   -2.5537   -0.0000 C   0  0  0  0  0  0  0  0  0  0  0  0
    0.8469   -3.3565   -0.0000 C   0  0  0  0  0  0  0  0  0  0  0  0
   -2.0875   -3.9802   -0.0000 C   0  0  0  0  0  0  0  0  0  0  0  0
    0.3834   -4.7831   -0.0000 C   0  0  0  0  0  0  0  0  0  0  0  0
   -1.0838   -5.0950   -0.0000 C   0  0  0  0  0  0  0  0  0  0  0  0
  1  2  2  0  0  0  0
  2  3  1  0  0  0  0
  2  4  1  0  0  0  0
  3  5  1  0  0  0  0
  4  6  2  0  0  0  0
  5  7  2  0  0  0  0
  5  8  1  0  0  0  0
  7  9  1  0  0  0  0
  8 10  2  0  0  0  0
  9 11  2  0  0  0  0
 10 12  1  0  0  0  0
 12 13  1  0  0  0  0
 13 14  1  0  0  0  0
 14 15  2  0  0  0  0
 14 16  1  0  0  0  0
 16 17  2  3  0  0  0
 17 18  1  0  0  0  0
 18 19  2  0  0  0  0
 18 20  1  0  0  0  0
 19 21  1  0  0  0  0
 19 22  1  0  0  0  0
 20 23  2  0  0  0  0
 20 24  1  0  0  0  0
 23 25  1  0  0  0  0
 24 26  2  0  0  0  0
 25 27  2  0  0  0  0
  6  7  1  0  0  0  0
 10 11  1  0  0  0  0
 22 23  1  0  0  0  0
 26 27  1  0  0  0  0
M  END
>  <S/N>
286

>  <Compound ID>
C_301

>  <PubChem CID>
137179324

>  <Isomeric SMILES>
C1=CC=C2C(=C1)C(=C(N2)O)N=NC(=O)COC3=CC4=C(C=C3)C=CC(=O)O4

>  <IC50 (�M)>
2.5

>  <pIC50>
5.6

$$$$
C_302
Actelion Java MolfileCreator 1.0

 28 31  0  0  0  0  0  0  0  0999 V2000
   14.2894   -0.0000   -0.0000 O   0  0  0  0  0  0  0  0  0  0  0  0
   12.9904   -0.7500   -0.0000 C   0  0  0  0  0  0  0  0  0  0  0  0
   11.6913   -0.0000   -0.0000 O   0  0  0  0  0  0  0  0  0  0  0  0
   12.9904   -2.2500   -0.0000 C   0  0  0  0  0  0  0  0  0  0  0  0
   10.3923   -0.7500   -0.0000 C   0  0  0  0  0  0  0  0  0  0  0  0
   11.6913   -3.0000   -0.0000 C   0  0  0  0  0  0  0  0  0  0  0  0
   10.3923   -2.2500   -0.0000 C   0  0  0  0  0  0  0  0  0  0  0  0
    9.0933   -0.0000   -0.0000 C   0  0  0  0  0  0  0  0  0  0  0  0
    9.0933   -3.0000   -0.0000 C   0  0  0  0  0  0  0  0  0  0  0  0
    7.7942   -0.7500   -0.0000 C   0  0  0  0  0  0  0  0  0  0  0  0
    7.7942   -2.2500   -0.0000 C   0  0  0  0  0  0  0  0  0  0  0  0
    6.4952   -0.0000   -0.0000 O   0  0  0  0  0  0  0  0  0  0  0  0
    5.1962   -0.7500   -0.0000 C   0  0  0  0  0  0  0  0  0  0  0  0
    3.8971   -0.0000   -0.0000 C   0  0  0  0  0  0  0  0  0  0  0  0
    3.8971    1.5000   -0.0000 O   0  0  0  0  0  0  0  0  0  0  0  0
    2.5981   -0.7500   -0.0000 N   0  0  0  0  0  0  0  0  0  0  0  0
    1.2990   -0.0000   -0.0000 N   0  0  0  0  0  0  0  0  0  0  0  0
    0.0000   -0.7500   -0.0000 C   0  0  0  0  0  0  0  0  0  0  0  0
   -1.3703   -0.1399   -0.0000 C   0  0  0  0  0  0  0  0  0  0  0  0
   -0.1568   -2.2418   -0.0000 C   0  0  0  0  0  0  0  0  0  0  0  0
   -1.6822    1.3273   -0.0000 O   0  0  0  0  0  0  0  0  0  0  0  0
   -2.3740   -1.2546   -0.0000 N   0  0  0  0  0  0  0  0  0  0  0  0
   -1.6240   -2.5537   -0.0000 C   0  0  0  0  0  0  0  0  0  0  0  0
    0.8469   -3.3565   -0.0000 C   0  0  0  0  0  0  0  0  0  0  0  0
   -2.0875   -3.9802   -0.0000 C   0  0  0  0  0  0  0  0  0  0  0  0
    0.3834   -4.7831   -0.0000 C   0  0  0  0  0  0  0  0  0  0  0  0
   -1.0838   -5.0950   -0.0000 C   0  0  0  0  0  0  0  0  0  0  0  0
    1.3871   -5.8978   -0.0000 C   0  0  0  0  0  0  0  0  0  0  0  0
  1  2  2  0  0  0  0
  2  3  1  0  0  0  0
  2  4  1  0  0  0  0
  3  5  1  0  0  0  0
  4  6  2  0  0  0  0
  5  7  2  0  0  0  0
  5  8  1  0  0  0  0
  7  9  1  0  0  0  0
  8 10  2  0  0  0  0
  9 11  2  0  0  0  0
 10 12  1  0  0  0  0
 12 13  1  0  0  0  0
 13 14  1  0  0  0  0
 14 15  2  0  0  0  0
 14 16  1  0  0  0  0
 16 17  2  3  0  0  0
 17 18  1  0  0  0  0
 18 19  2  0  0  0  0
 18 20  1  0  0  0  0
 19 21  1  0  0  0  0
 19 22  1  0  0  0  0
 20 23  2  0  0  0  0
 20 24  1  0  0  0  0
 23 25  1  0  0  0  0
 24 26  2  0  0  0  0
 25 27  2  0  0  0  0
 26 28  1  0  0  0  0
  6  7  1  0  0  0  0
 10 11  1  0  0  0  0
 22 23  1  0  0  0  0
 26 27  1  0  0  0  0
M  END
>  <S/N>
287

>  <Compound ID>
C_302

>  <PubChem CID>
137179325

>  <Isomeric SMILES>
CC1=CC2=C(C=C1)NC(=C2N=NC(=O)COC3=CC4=C(C=C3)C=CC(=O)O4)O

>  <IC50 (�M)>
2.5

>  <pIC50>
5.6

$$$$
C_303
Actelion Java MolfileCreator 1.0

 29 32  0  0  0  0  0  0  0  0999 V2000
   14.2894   -0.0000   -0.0000 O   0  0  0  0  0  0  0  0  0  0  0  0
   12.9904   -0.7500   -0.0000 C   0  0  0  0  0  0  0  0  0  0  0  0
   11.6913   -0.0000   -0.0000 O   0  0  0  0  0  0  0  0  0  0  0  0
   12.9904   -2.2500   -0.0000 C   0  0  0  0  0  0  0  0  0  0  0  0
   10.3923   -0.7500   -0.0000 C   0  0  0  0  0  0  0  0  0  0  0  0
   11.6913   -3.0000   -0.0000 C   0  0  0  0  0  0  0  0  0  0  0  0
   10.3923   -2.2500   -0.0000 C   0  0  0  0  0  0  0  0  0  0  0  0
    9.0933   -0.0000   -0.0000 C   0  0  0  0  0  0  0  0  0  0  0  0
    9.0933   -3.0000   -0.0000 C   0  0  0  0  0  0  0  0  0  0  0  0
    7.7942   -0.7500   -0.0000 C   0  0  0  0  0  0  0  0  0  0  0  0
    7.7942   -2.2500   -0.0000 C   0  0  0  0  0  0  0  0  0  0  0  0
    6.4952   -0.0000   -0.0000 O   0  0  0  0  0  0  0  0  0  0  0  0
    5.1962   -0.7500   -0.0000 C   0  0  0  0  0  0  0  0  0  0  0  0
    3.8971   -0.0000   -0.0000 C   0  0  0  0  0  0  0  0  0  0  0  0
    3.8971    1.5000   -0.0000 O   0  0  0  0  0  0  0  0  0  0  0  0
    2.5981   -0.7500   -0.0000 N   0  0  0  0  0  0  0  0  0  0  0  0
    1.2990   -0.0000   -0.0000 N   0  0  0  0  0  0  0  0  0  0  0  0
    0.0000   -0.7500   -0.0000 C   0  0  0  0  0  0  0  0  0  0  0  0
   -1.3703   -0.1399   -0.0000 C   0  0  0  0  0  0  0  0  0  0  0  0
   -0.1568   -2.2418   -0.0000 C   0  0  0  0  0  0  0  0  0  0  0  0
   -1.6822    1.3273   -0.0000 O   0  0  0  0  0  0  0  0  0  0  0  0
   -2.3740   -1.2546   -0.0000 N   0  0  0  0  0  0  0  0  0  0  0  0
   -1.6240   -2.5537   -0.0000 C   0  0  0  0  0  0  0  0  0  0  0  0
    0.8469   -3.3565   -0.0000 C   0  0  0  0  0  0  0  0  0  0  0  0
   -2.0875   -3.9802   -0.0000 C   0  0  0  0  0  0  0  0  0  0  0  0
    0.3834   -4.7831   -0.0000 C   0  0  0  0  0  0  0  0  0  0  0  0
   -1.0838   -5.0950   -0.0000 C   0  0  0  0  0  0  0  0  0  0  0  0
   -3.5548   -4.2921   -0.0000 C   0  0  0  0  0  0  0  0  0  0  0  0
    1.3871   -5.8978   -0.0000 C   0  0  0  0  0  0  0  0  0  0  0  0
  1  2  2  0  0  0  0
  2  3  1  0  0  0  0
  2  4  1  0  0  0  0
  3  5  1  0  0  0  0
  4  6  2  0  0  0  0
  5  7  2  0  0  0  0
  5  8  1  0  0  0  0
  7  9  1  0  0  0  0
  8 10  2  0  0  0  0
  9 11  2  0  0  0  0
 10 12  1  0  0  0  0
 12 13  1  0  0  0  0
 13 14  1  0  0  0  0
 14 15  2  0  0  0  0
 14 16  1  0  0  0  0
 16 17  2  3  0  0  0
 17 18  1  0  0  0  0
 18 19  2  0  0  0  0
 18 20  1  0  0  0  0
 19 21  1  0  0  0  0
 19 22  1  0  0  0  0
 20 23  2  0  0  0  0
 20 24  1  0  0  0  0
 23 25  1  0  0  0  0
 24 26  2  0  0  0  0
 25 27  2  0  0  0  0
 25 28  1  0  0  0  0
 26 29  1  0  0  0  0
  6  7  1  0  0  0  0
 10 11  1  0  0  0  0
 22 23  1  0  0  0  0
 26 27  1  0  0  0  0
M  END
>  <S/N>
288

>  <Compound ID>
C_303

>  <PubChem CID>
137179326

>  <Isomeric SMILES>
CC1=CC(=C2C(=C1)C(=C(N2)O)N=NC(=O)COC3=CC4=C(C=C3)C=CC(=O)O4)C

>  <IC50 (�M)>
2.5

>  <pIC50>
5.6

$$$$
C_304
Actelion Java MolfileCreator 1.0

 28 31  0  0  0  0  0  0  0  0999 V2000
    7.7059    2.0168   -0.0000 F   0  0  0  0  0  0  0  0  0  0  0  0
    7.3969    1.0657   -0.0000 C   0  0  0  0  0  0  0  0  0  0  0  0
    6.4187    0.8578   -0.0000 C   0  0  0  0  0  0  0  0  0  0  0  0
    8.0660    0.3226   -0.0000 C   0  0  0  0  0  0  0  0  0  0  0  0
    6.1097   -0.0933   -0.0000 C   0  0  0  0  0  0  0  0  0  0  0  0
    7.7570   -0.6285   -0.0000 C   0  0  0  0  0  0  0  0  0  0  0  0
    5.1962   -0.5000   -0.0000 C   0  0  0  0  0  0  0  0  0  0  0  0
    6.7788   -0.8364   -0.0000 C   0  0  0  0  0  0  0  0  0  0  0  0
    4.3301   -0.0000   -0.0000 N   0  0  0  0  0  0  0  0  0  0  0  0
    5.3007   -1.4945   -0.0000 C   0  0  0  0  0  0  0  0  0  0  0  0
    6.2788   -1.7024   -0.0000 N   0  0  0  0  0  0  0  0  0  0  0  0
    3.4641   -0.5000   -0.0000 N   0  0  0  0  0  0  0  0  0  0  0  0
    4.5575   -2.1637   -0.0000 O   0  0  0  0  0  0  0  0  0  0  0  0
    2.5981   -0.0000   -0.0000 C   0  0  0  0  0  0  0  0  0  0  0  0
    2.5981    1.0000   -0.0000 O   0  0  0  0  0  0  0  0  0  0  0  0
    1.7321   -0.5000   -0.0000 C   0  0  0  0  0  0  0  0  0  0  0  0
    0.8660   -0.0000   -0.0000 O   0  0  0  0  0  0  0  0  0  0  0  0
    0.0000   -0.5000   -0.0000 C   0  0  0  0  0  0  0  0  0  0  0  0
   -0.8660    0.0000   -0.0000 C   0  0  0  0  0  0  0  0  0  0  0  0
   -0.0000   -1.5000   -0.0000 C   0  0  0  0  0  0  0  0  0  0  0  0
   -1.7321   -0.5000   -0.0000 C   0  0  0  0  0  0  0  0  0  0  0  0
   -0.8660   -2.0000   -0.0000 C   0  0  0  0  0  0  0  0  0  0  0  0
   -2.5981    0.0000   -0.0000 O   0  0  0  0  0  0  0  0  0  0  0  0
   -1.7321   -1.5000   -0.0000 C   0  0  0  0  0  0  0  0  0  0  0  0
   -3.4641   -0.5000   -0.0000 C   0  0  0  0  0  0  0  0  0  0  0  0
   -2.5981   -2.0000   -0.0000 C   0  0  0  0  0  0  0  0  0  0  0  0
   -4.3301    0.0000   -0.0000 O   0  0  0  0  0  0  0  0  0  0  0  0
   -3.4641   -1.5000   -0.0000 C   0  0  0  0  0  0  0  0  0  0  0  0
  1  2  1  0  0  0  0
  2  3  2  0  0  0  0
  2  4  1  0  0  0  0
  3  5  1  0  0  0  0
  4  6  2  0  0  0  0
  5  7  1  0  0  0  0
  5  8  2  0  0  0  0
  7  9  1  0  0  0  0
  7 10  2  0  0  0  0
  8 11  1  0  0  0  0
  9 12  2  3  0  0  0
 10 13  1  0  0  0  0
 12 14  1  0  0  0  0
 14 15  2  0  0  0  0
 14 16  1  0  0  0  0
 16 17  1  0  0  0  0
 17 18  1  0  0  0  0
 18 19  2  0  0  0  0
 18 20  1  0  0  0  0
 19 21  1  0  0  0  0
 20 22  2  0  0  0  0
 21 23  1  0  0  0  0
 21 24  2  0  0  0  0
 23 25  1  0  0  0  0
 24 26  1  0  0  0  0
 25 27  2  0  0  0  0
 25 28  1  0  0  0  0
  6  8  1  0  0  0  0
 10 11  1  0  0  0  0
 22 24  1  0  0  0  0
 26 28  2  0  0  0  0
M  END
>  <S/N>
289

>  <Compound ID>
C_304

>  <PubChem CID>
137179327

>  <Isomeric SMILES>
C1=CC(=CC2=C1C=CC(=O)O2)OCC(=O)N=NC3=C(NC4=C3C=C(C=C4)F)O

>  <IC50 (�M)>
2.5

>  <pIC50>
5.6

$$$$
C_305
Actelion Java MolfileCreator 1.0

 28 31  0  0  0  0  0  0  0  0999 V2000
    7.7059    2.0168   -0.0000 Cl  0  0  0  0  0  0  0  0  0  0  0  0
    7.3969    1.0657   -0.0000 C   0  0  0  0  0  0  0  0  0  0  0  0
    6.4187    0.8578   -0.0000 C   0  0  0  0  0  0  0  0  0  0  0  0
    8.0660    0.3226   -0.0000 C   0  0  0  0  0  0  0  0  0  0  0  0
    6.1097   -0.0933   -0.0000 C   0  0  0  0  0  0  0  0  0  0  0  0
    7.7570   -0.6285   -0.0000 C   0  0  0  0  0  0  0  0  0  0  0  0
    5.1962   -0.5000   -0.0000 C   0  0  0  0  0  0  0  0  0  0  0  0
    6.7788   -0.8364   -0.0000 C   0  0  0  0  0  0  0  0  0  0  0  0
    4.3301   -0.0000   -0.0000 N   0  0  0  0  0  0  0  0  0  0  0  0
    5.3007   -1.4945   -0.0000 C   0  0  0  0  0  0  0  0  0  0  0  0
    6.2788   -1.7024   -0.0000 N   0  0  0  0  0  0  0  0  0  0  0  0
    3.4641   -0.5000   -0.0000 N   0  0  0  0  0  0  0  0  0  0  0  0
    4.5575   -2.1637   -0.0000 O   0  0  0  0  0  0  0  0  0  0  0  0
    2.5981   -0.0000   -0.0000 C   0  0  0  0  0  0  0  0  0  0  0  0
    2.5981    1.0000   -0.0000 O   0  0  0  0  0  0  0  0  0  0  0  0
    1.7321   -0.5000   -0.0000 C   0  0  0  0  0  0  0  0  0  0  0  0
    0.8660   -0.0000   -0.0000 O   0  0  0  0  0  0  0  0  0  0  0  0
    0.0000   -0.5000   -0.0000 C   0  0  0  0  0  0  0  0  0  0  0  0
   -0.8660    0.0000   -0.0000 C   0  0  0  0  0  0  0  0  0  0  0  0
   -0.0000   -1.5000   -0.0000 C   0  0  0  0  0  0  0  0  0  0  0  0
   -1.7321   -0.5000   -0.0000 C   0  0  0  0  0  0  0  0  0  0  0  0
   -0.8660   -2.0000   -0.0000 C   0  0  0  0  0  0  0  0  0  0  0  0
   -2.5981    0.0000   -0.0000 O   0  0  0  0  0  0  0  0  0  0  0  0
   -1.7321   -1.5000   -0.0000 C   0  0  0  0  0  0  0  0  0  0  0  0
   -3.4641   -0.5000   -0.0000 C   0  0  0  0  0  0  0  0  0  0  0  0
   -2.5981   -2.0000   -0.0000 C   0  0  0  0  0  0  0  0  0  0  0  0
   -4.3301    0.0000   -0.0000 O   0  0  0  0  0  0  0  0  0  0  0  0
   -3.4641   -1.5000   -0.0000 C   0  0  0  0  0  0  0  0  0  0  0  0
  1  2  1  0  0  0  0
  2  3  2  0  0  0  0
  2  4  1  0  0  0  0
  3  5  1  0  0  0  0
  4  6  2  0  0  0  0
  5  7  1  0  0  0  0
  5  8  2  0  0  0  0
  7  9  1  0  0  0  0
  7 10  2  0  0  0  0
  8 11  1  0  0  0  0
  9 12  2  3  0  0  0
 10 13  1  0  0  0  0
 12 14  1  0  0  0  0
 14 15  2  0  0  0  0
 14 16  1  0  0  0  0
 16 17  1  0  0  0  0
 17 18  1  0  0  0  0
 18 19  2  0  0  0  0
 18 20  1  0  0  0  0
 19 21  1  0  0  0  0
 20 22  2  0  0  0  0
 21 23  1  0  0  0  0
 21 24  2  0  0  0  0
 23 25  1  0  0  0  0
 24 26  1  0  0  0  0
 25 27  2  0  0  0  0
 25 28  1  0  0  0  0
  6  8  1  0  0  0  0
 10 11  1  0  0  0  0
 22 24  1  0  0  0  0
 26 28  2  0  0  0  0
M  END
>  <S/N>
290

>  <Compound ID>
C_305

>  <PubChem CID>
137179328

>  <Isomeric SMILES>
C1=CC(=CC2=C1C=CC(=O)O2)OCC(=O)N=NC3=C(NC4=C3C=C(C=C4)Cl)O

>  <IC50 (�M)>
2.5

>  <pIC50>
5.6

$$$$
C_306
Actelion Java MolfileCreator 1.0

 28 31  0  0  0  0  0  0  0  0999 V2000
    7.7059    2.0168   -0.0000 Br  0  0  0  0  0  0  0  0  0  0  0  0
    7.3969    1.0657   -0.0000 C   0  0  0  0  0  0  0  0  0  0  0  0
    6.4187    0.8578   -0.0000 C   0  0  0  0  0  0  0  0  0  0  0  0
    8.0660    0.3226   -0.0000 C   0  0  0  0  0  0  0  0  0  0  0  0
    6.1097   -0.0933   -0.0000 C   0  0  0  0  0  0  0  0  0  0  0  0
    7.7570   -0.6285   -0.0000 C   0  0  0  0  0  0  0  0  0  0  0  0
    5.1962   -0.5000   -0.0000 C   0  0  0  0  0  0  0  0  0  0  0  0
    6.7788   -0.8364   -0.0000 C   0  0  0  0  0  0  0  0  0  0  0  0
    4.3301   -0.0000   -0.0000 N   0  0  0  0  0  0  0  0  0  0  0  0
    5.3007   -1.4945   -0.0000 C   0  0  0  0  0  0  0  0  0  0  0  0
    6.2788   -1.7024   -0.0000 N   0  0  0  0  0  0  0  0  0  0  0  0
    3.4641   -0.5000   -0.0000 N   0  0  0  0  0  0  0  0  0  0  0  0
    4.5575   -2.1637   -0.0000 O   0  0  0  0  0  0  0  0  0  0  0  0
    2.5981   -0.0000   -0.0000 C   0  0  0  0  0  0  0  0  0  0  0  0
    2.5981    1.0000   -0.0000 O   0  0  0  0  0  0  0  0  0  0  0  0
    1.7321   -0.5000   -0.0000 C   0  0  0  0  0  0  0  0  0  0  0  0
    0.8660   -0.0000   -0.0000 O   0  0  0  0  0  0  0  0  0  0  0  0
    0.0000   -0.5000   -0.0000 C   0  0  0  0  0  0  0  0  0  0  0  0
   -0.8660    0.0000   -0.0000 C   0  0  0  0  0  0  0  0  0  0  0  0
   -0.0000   -1.5000   -0.0000 C   0  0  0  0  0  0  0  0  0  0  0  0
   -1.7321   -0.5000   -0.0000 C   0  0  0  0  0  0  0  0  0  0  0  0
   -0.8660   -2.0000   -0.0000 C   0  0  0  0  0  0  0  0  0  0  0  0
   -2.5981    0.0000   -0.0000 O   0  0  0  0  0  0  0  0  0  0  0  0
   -1.7321   -1.5000   -0.0000 C   0  0  0  0  0  0  0  0  0  0  0  0
   -3.4641   -0.5000   -0.0000 C   0  0  0  0  0  0  0  0  0  0  0  0
   -2.5981   -2.0000   -0.0000 C   0  0  0  0  0  0  0  0  0  0  0  0
   -4.3301    0.0000   -0.0000 O   0  0  0  0  0  0  0  0  0  0  0  0
   -3.4641   -1.5000   -0.0000 C   0  0  0  0  0  0  0  0  0  0  0  0
  1  2  1  0  0  0  0
  2  3  2  0  0  0  0
  2  4  1  0  0  0  0
  3  5  1  0  0  0  0
  4  6  2  0  0  0  0
  5  7  1  0  0  0  0
  5  8  2  0  0  0  0
  7  9  1  0  0  0  0
  7 10  2  0  0  0  0
  8 11  1  0  0  0  0
  9 12  2  3  0  0  0
 10 13  1  0  0  0  0
 12 14  1  0  0  0  0
 14 15  2  0  0  0  0
 14 16  1  0  0  0  0
 16 17  1  0  0  0  0
 17 18  1  0  0  0  0
 18 19  2  0  0  0  0
 18 20  1  0  0  0  0
 19 21  1  0  0  0  0
 20 22  2  0  0  0  0
 21 23  1  0  0  0  0
 21 24  2  0  0  0  0
 23 25  1  0  0  0  0
 24 26  1  0  0  0  0
 25 27  2  0  0  0  0
 25 28  1  0  0  0  0
  6  8  1  0  0  0  0
 10 11  1  0  0  0  0
 22 24  1  0  0  0  0
 26 28  2  0  0  0  0
M  END
>  <S/N>
291

>  <Compound ID>
C_306

>  <PubChem CID>
137179329

>  <Isomeric SMILES>
C1=CC(=CC2=C1C=CC(=O)O2)OCC(=O)N=NC3=C(NC4=C3C=C(C=C4)Br)O

>  <IC50 (�M)>
2.5

>  <pIC50>
5.6

$$$$
C_307
Actelion Java MolfileCreator 1.0

 30 33  0  0  0  0  0  0  0  0999 V2000
    8.6840    2.2247   -0.0000 O   0  0  0  0  0  0  0  0  0  0  0  0
    7.7059    2.0168   -0.0000 N   0  0  0  0  0  0  0  0  0  0  0  0
    7.0367    2.7599   -0.0000 O   0  0  0  0  0  0  0  0  0  0  0  0
    7.3969    1.0657   -0.0000 C   0  0  0  0  0  0  0  0  0  0  0  0
    6.4187    0.8578   -0.0000 C   0  0  0  0  0  0  0  0  0  0  0  0
    8.0660    0.3226   -0.0000 C   0  0  0  0  0  0  0  0  0  0  0  0
    6.1097   -0.0933   -0.0000 C   0  0  0  0  0  0  0  0  0  0  0  0
    7.7570   -0.6285   -0.0000 C   0  0  0  0  0  0  0  0  0  0  0  0
    5.1962   -0.5000   -0.0000 C   0  0  0  0  0  0  0  0  0  0  0  0
    6.7788   -0.8364   -0.0000 C   0  0  0  0  0  0  0  0  0  0  0  0
    4.3301   -0.0000   -0.0000 N   0  0  0  0  0  0  0  0  0  0  0  0
    5.3007   -1.4945   -0.0000 C   0  0  0  0  0  0  0  0  0  0  0  0
    6.2788   -1.7024   -0.0000 N   0  0  0  0  0  0  0  0  0  0  0  0
    3.4641   -0.5000   -0.0000 N   0  0  0  0  0  0  0  0  0  0  0  0
    4.5575   -2.1637   -0.0000 O   0  0  0  0  0  0  0  0  0  0  0  0
    2.5981   -0.0000   -0.0000 C   0  0  0  0  0  0  0  0  0  0  0  0
    2.5981    1.0000   -0.0000 O   0  0  0  0  0  0  0  0  0  0  0  0
    1.7321   -0.5000   -0.0000 C   0  0  0  0  0  0  0  0  0  0  0  0
    0.8660   -0.0000   -0.0000 O   0  0  0  0  0  0  0  0  0  0  0  0
    0.0000   -0.5000   -0.0000 C   0  0  0  0  0  0  0  0  0  0  0  0
   -0.8660    0.0000   -0.0000 C   0  0  0  0  0  0  0  0  0  0  0  0
   -0.0000   -1.5000   -0.0000 C   0  0  0  0  0  0  0  0  0  0  0  0
   -1.7321   -0.5000   -0.0000 C   0  0  0  0  0  0  0  0  0  0  0  0
   -0.8660   -2.0000   -0.0000 C   0  0  0  0  0  0  0  0  0  0  0  0
   -2.5981    0.0000   -0.0000 O   0  0  0  0  0  0  0  0  0  0  0  0
   -1.7321   -1.5000   -0.0000 C   0  0  0  0  0  0  0  0  0  0  0  0
   -3.4641   -0.5000   -0.0000 C   0  0  0  0  0  0  0  0  0  0  0  0
   -2.5981   -2.0000   -0.0000 C   0  0  0  0  0  0  0  0  0  0  0  0
   -4.3301    0.0000   -0.0000 O   0  0  0  0  0  0  0  0  0  0  0  0
   -3.4641   -1.5000   -0.0000 C   0  0  0  0  0  0  0  0  0  0  0  0
  1  2  2  0  0  0  0
  2  3  1  0  0  0  0
  2  4  1  0  0  0  0
  4  5  2  0  0  0  0
  4  6  1  0  0  0  0
  5  7  1  0  0  0  0
  6  8  2  0  0  0  0
  7  9  1  0  0  0  0
  7 10  2  0  0  0  0
  9 11  1  0  0  0  0
  9 12  2  0  0  0  0
 10 13  1  0  0  0  0
 11 14  2  3  0  0  0
 12 15  1  0  0  0  0
 14 16  1  0  0  0  0
 16 17  2  0  0  0  0
 16 18  1  0  0  0  0
 18 19  1  0  0  0  0
 19 20  1  0  0  0  0
 20 21  2  0  0  0  0
 20 22  1  0  0  0  0
 21 23  1  0  0  0  0
 22 24  2  0  0  0  0
 23 25  1  0  0  0  0
 23 26  2  0  0  0  0
 25 27  1  0  0  0  0
 26 28  1  0  0  0  0
 27 29  2  0  0  0  0
 27 30  1  0  0  0  0
  8 10  1  0  0  0  0
 12 13  1  0  0  0  0
 24 26  1  0  0  0  0
 28 30  2  0  0  0  0
M  CHG  2   2   1   3  -1
M  END
>  <S/N>
292

>  <Compound ID>
C_307

>  <PubChem CID>
137179330

>  <Isomeric SMILES>
C1=CC(=CC2=C1C=CC(=O)O2)OCC(=O)N=NC3=C(NC4=C3C=C(C=C4)[N+](=O)[O-])O

>  <IC50 (�M)>
2.5

>  <pIC50>
5.6

$$$$
C_308
Actelion Java MolfileCreator 1.0

 28 31  0  0  0  0  0  0  0  0999 V2000
   14.2894   -0.0000   -0.0000 O   0  0  0  0  0  0  0  0  0  0  0  0
   12.9904   -0.7500   -0.0000 C   0  0  0  0  0  0  0  0  0  0  0  0
   11.6913   -0.0000   -0.0000 O   0  0  0  0  0  0  0  0  0  0  0  0
   12.9904   -2.2500   -0.0000 C   0  0  0  0  0  0  0  0  0  0  0  0
   10.3923   -0.7500   -0.0000 C   0  0  0  0  0  0  0  0  0  0  0  0
   11.6913   -3.0000   -0.0000 C   0  0  0  0  0  0  0  0  0  0  0  0
   10.3923   -2.2500   -0.0000 C   0  0  0  0  0  0  0  0  0  0  0  0
    9.0933   -0.0000   -0.0000 C   0  0  0  0  0  0  0  0  0  0  0  0
    9.0933   -3.0000   -0.0000 C   0  0  0  0  0  0  0  0  0  0  0  0
    7.7942   -0.7500   -0.0000 C   0  0  0  0  0  0  0  0  0  0  0  0
    7.7942   -2.2500   -0.0000 C   0  0  0  0  0  0  0  0  0  0  0  0
    6.4952   -0.0000   -0.0000 O   0  0  0  0  0  0  0  0  0  0  0  0
    5.1962   -0.7500   -0.0000 C   0  0  0  0  0  0  0  0  0  0  0  0
    3.8971   -0.0000   -0.0000 C   0  0  0  0  0  0  0  0  0  0  0  0
    3.8971    1.5000   -0.0000 O   0  0  0  0  0  0  0  0  0  0  0  0
    2.5981   -0.7500   -0.0000 N   0  0  0  0  0  0  0  0  0  0  0  0
    1.2990   -0.0000   -0.0000 N   0  0  0  0  0  0  0  0  0  0  0  0
    0.0000   -0.7500   -0.0000 C   0  0  0  0  0  0  0  0  0  0  0  0
   -1.3703   -0.1399   -0.0000 C   0  0  0  0  0  0  0  0  0  0  0  0
   -0.1568   -2.2418   -0.0000 C   0  0  0  0  0  0  0  0  0  0  0  0
   -1.6822    1.3273   -0.0000 O   0  0  0  0  0  0  0  0  0  0  0  0
   -2.3740   -1.2546   -0.0000 N   0  0  0  0  0  0  0  0  0  0  0  0
   -1.6240   -2.5537   -0.0000 C   0  0  0  0  0  0  0  0  0  0  0  0
    0.8469   -3.3565   -0.0000 C   0  0  0  0  0  0  0  0  0  0  0  0
   -3.8658   -1.0978   -0.0000 C   0  0  0  0  0  0  0  0  0  0  0  0
   -2.0875   -3.9802   -0.0000 C   0  0  0  0  0  0  0  0  0  0  0  0
    0.3834   -4.7831   -0.0000 C   0  0  0  0  0  0  0  0  0  0  0  0
   -1.0838   -5.0950   -0.0000 C   0  0  0  0  0  0  0  0  0  0  0  0
  1  2  2  0  0  0  0
  2  3  1  0  0  0  0
  2  4  1  0  0  0  0
  3  5  1  0  0  0  0
  4  6  2  0  0  0  0
  5  7  2  0  0  0  0
  5  8  1  0  0  0  0
  7  9  1  0  0  0  0
  8 10  2  0  0  0  0
  9 11  2  0  0  0  0
 10 12  1  0  0  0  0
 12 13  1  0  0  0  0
 13 14  1  0  0  0  0
 14 15  2  0  0  0  0
 14 16  1  0  0  0  0
 16 17  2  3  0  0  0
 17 18  1  0  0  0  0
 18 19  2  0  0  0  0
 18 20  1  0  0  0  0
 19 21  1  0  0  0  0
 19 22  1  0  0  0  0
 20 23  2  0  0  0  0
 20 24  1  0  0  0  0
 22 25  1  0  0  0  0
 23 26  1  0  0  0  0
 24 27  2  0  0  0  0
 26 28  2  0  0  0  0
  6  7  1  0  0  0  0
 10 11  1  0  0  0  0
 22 23  1  0  0  0  0
 27 28  1  0  0  0  0
M  END
>  <S/N>
293

>  <Compound ID>
C_308

>  <PubChem CID>
137179331

>  <Isomeric SMILES>
CN1C2=CC=CC=C2C(=C1O)N=NC(=O)COC3=CC4=C(C=C3)C=CC(=O)O4

>  <IC50 (�M)>
2.5

>  <pIC50>
5.6

$$$$
C_309
Actelion Java MolfileCreator 1.0

 34 38  0  0  0  0  0  0  0  0999 V2000
   14.2894   -0.0000   -0.0000 O   0  0  0  0  0  0  0  0  0  0  0  0
   12.9904   -0.7500   -0.0000 C   0  0  0  0  0  0  0  0  0  0  0  0
   11.6913   -0.0000   -0.0000 O   0  0  0  0  0  0  0  0  0  0  0  0
   12.9904   -2.2500   -0.0000 C   0  0  0  0  0  0  0  0  0  0  0  0
   10.3923   -0.7500   -0.0000 C   0  0  0  0  0  0  0  0  0  0  0  0
   11.6913   -3.0000   -0.0000 C   0  0  0  0  0  0  0  0  0  0  0  0
   10.3923   -2.2500   -0.0000 C   0  0  0  0  0  0  0  0  0  0  0  0
    9.0933   -0.0000   -0.0000 C   0  0  0  0  0  0  0  0  0  0  0  0
    9.0933   -3.0000   -0.0000 C   0  0  0  0  0  0  0  0  0  0  0  0
    7.7942   -0.7500   -0.0000 C   0  0  0  0  0  0  0  0  0  0  0  0
    7.7942   -2.2500   -0.0000 C   0  0  0  0  0  0  0  0  0  0  0  0
    6.4952   -0.0000   -0.0000 O   0  0  0  0  0  0  0  0  0  0  0  0
    5.1962   -0.7500   -0.0000 C   0  0  0  0  0  0  0  0  0  0  0  0
    3.8971   -0.0000   -0.0000 C   0  0  0  0  0  0  0  0  0  0  0  0
    3.8971    1.5000   -0.0000 O   0  0  0  0  0  0  0  0  0  0  0  0
    2.5981   -0.7500   -0.0000 N   0  0  0  0  0  0  0  0  0  0  0  0
    1.2990   -0.0000   -0.0000 N   0  0  0  0  0  0  0  0  0  0  0  0
    0.0000   -0.7500   -0.0000 C   0  0  0  0  0  0  0  0  0  0  0  0
   -1.3703   -0.1399   -0.0000 C   0  0  0  0  0  0  0  0  0  0  0  0
   -0.1568   -2.2418   -0.0000 C   0  0  0  0  0  0  0  0  0  0  0  0
   -1.6822    1.3273   -0.0000 O   0  0  0  0  0  0  0  0  0  0  0  0
   -2.3740   -1.2546   -0.0000 N   0  0  0  0  0  0  0  0  0  0  0  0
   -1.6240   -2.5537   -0.0000 C   0  0  0  0  0  0  0  0  0  0  0  0
    0.8469   -3.3565   -0.0000 C   0  0  0  0  0  0  0  0  0  0  0  0
   -3.8658   -1.0978   -0.0000 C   0  0  0  0  0  0  0  0  0  0  0  0
   -2.0875   -3.9802   -0.0000 C   0  0  0  0  0  0  0  0  0  0  0  0
    0.3834   -4.7831   -0.0000 C   0  0  0  0  0  0  0  0  0  0  0  0
   -4.7475   -2.3113   -0.0000 C   0  0  0  0  0  0  0  0  0  0  0  0
   -1.0838   -5.0950   -0.0000 C   0  0  0  0  0  0  0  0  0  0  0  0
   -6.2393   -2.1546   -0.0000 C   0  0  0  0  0  0  0  0  0  0  0  0
   -4.1374   -3.6817   -0.0000 C   0  0  0  0  0  0  0  0  0  0  0  0
   -7.1209   -3.3681   -0.0000 C   0  0  0  0  0  0  0  0  0  0  0  0
   -5.0190   -4.8952   -0.0000 C   0  0  0  0  0  0  0  0  0  0  0  0
   -6.5108   -4.7384   -0.0000 C   0  0  0  0  0  0  0  0  0  0  0  0
  1  2  2  0  0  0  0
  2  3  1  0  0  0  0
  2  4  1  0  0  0  0
  3  5  1  0  0  0  0
  4  6  2  0  0  0  0
  5  7  2  0  0  0  0
  5  8  1  0  0  0  0
  7  9  1  0  0  0  0
  8 10  2  0  0  0  0
  9 11  2  0  0  0  0
 10 12  1  0  0  0  0
 12 13  1  0  0  0  0
 13 14  1  0  0  0  0
 14 15  2  0  0  0  0
 14 16  1  0  0  0  0
 16 17  2  3  0  0  0
 17 18  1  0  0  0  0
 18 19  2  0  0  0  0
 18 20  1  0  0  0  0
 19 21  1  0  0  0  0
 19 22  1  0  0  0  0
 20 23  2  0  0  0  0
 20 24  1  0  0  0  0
 22 25  1  0  0  0  0
 23 26  1  0  0  0  0
 24 27  2  0  0  0  0
 25 28  1  0  0  0  0
 26 29  2  0  0  0  0
 28 30  2  0  0  0  0
 28 31  1  0  0  0  0
 30 32  1  0  0  0  0
 31 33  2  0  0  0  0
 32 34  2  0  0  0  0
  6  7  1  0  0  0  0
 10 11  1  0  0  0  0
 22 23  1  0  0  0  0
 27 29  1  0  0  0  0
 33 34  1  0  0  0  0
M  END
>  <S/N>
294

>  <Compound ID>
C_309

>  <PubChem CID>
137179332

>  <Isomeric SMILES>
C1=CC=C(C=C1)CN2C3=CC=CC=C3C(=C2O)N=NC(=O)COC4=CC5=C(C=C4)C=CC(=O)O5

>  <IC50 (�M)>
2.5

>  <pIC50>
5.6

$$$$
C_310
Actelion Java MolfileCreator 1.0

 35 39  0  0  0  0  0  0  0  0999 V2000
    9.7624   -0.5228   -0.0000 F   0  0  0  0  0  0  0  0  0  0  0  0
    9.3557   -1.4364   -0.0000 C   0  0  0  0  0  0  0  0  0  0  0  0
    8.3611   -1.5409   -0.0000 C   0  0  0  0  0  0  0  0  0  0  0  0
    9.9434   -2.2454   -0.0000 C   0  0  0  0  0  0  0  0  0  0  0  0
    7.9544   -2.4544   -0.0000 C   0  0  0  0  0  0  0  0  0  0  0  0
    7.7734   -0.7319   -0.0000 C   0  0  0  0  0  0  0  0  0  0  0  0
    9.5367   -3.1589   -0.0000 C   0  0  0  0  0  0  0  0  0  0  0  0
    8.5422   -3.2635   -0.0000 C   0  0  0  0  0  0  0  0  0  0  0  0
    6.7788   -0.8364   -0.0000 N   0  0  0  0  0  0  0  0  0  0  0  0
    6.1097   -0.0933   -0.0000 C   0  0  0  0  0  0  0  0  0  0  0  0
    6.2788   -1.7024   -0.0000 C   0  0  0  0  0  0  0  0  0  0  0  0
    6.3176    0.8849   -0.0000 O   0  0  0  0  0  0  0  0  0  0  0  0
    5.1962   -0.5000   -0.0000 C   0  0  0  0  0  0  0  0  0  0  0  0
    5.3007   -1.4945   -0.0000 C   0  0  0  0  0  0  0  0  0  0  0  0
    6.5878   -2.6535   -0.0000 C   0  0  0  0  0  0  0  0  0  0  0  0
    4.3301   -0.0000   -0.0000 N   0  0  0  0  0  0  0  0  0  0  0  0
    4.6316   -2.2377   -0.0000 C   0  0  0  0  0  0  0  0  0  0  0  0
    5.9187   -3.3966   -0.0000 C   0  0  0  0  0  0  0  0  0  0  0  0
    3.4641   -0.5000   -0.0000 N   0  0  0  0  0  0  0  0  0  0  0  0
    4.9406   -3.1887   -0.0000 C   0  0  0  0  0  0  0  0  0  0  0  0
    2.5981   -0.0000   -0.0000 C   0  0  0  0  0  0  0  0  0  0  0  0
    2.5981    1.0000   -0.0000 O   0  0  0  0  0  0  0  0  0  0  0  0
    1.7321   -0.5000   -0.0000 C   0  0  0  0  0  0  0  0  0  0  0  0
    0.8660   -0.0000   -0.0000 O   0  0  0  0  0  0  0  0  0  0  0  0
    0.0000   -0.5000   -0.0000 C   0  0  0  0  0  0  0  0  0  0  0  0
   -0.8660    0.0000   -0.0000 C   0  0  0  0  0  0  0  0  0  0  0  0
   -0.0000   -1.5000   -0.0000 C   0  0  0  0  0  0  0  0  0  0  0  0
   -1.7321   -0.5000   -0.0000 C   0  0  0  0  0  0  0  0  0  0  0  0
   -0.8660   -2.0000   -0.0000 C   0  0  0  0  0  0  0  0  0  0  0  0
   -2.5981    0.0000   -0.0000 O   0  0  0  0  0  0  0  0  0  0  0  0
   -1.7321   -1.5000   -0.0000 C   0  0  0  0  0  0  0  0  0  0  0  0
   -3.4641   -0.5000   -0.0000 C   0  0  0  0  0  0  0  0  0  0  0  0
   -2.5981   -2.0000   -0.0000 C   0  0  0  0  0  0  0  0  0  0  0  0
   -4.3301    0.0000   -0.0000 O   0  0  0  0  0  0  0  0  0  0  0  0
   -3.4641   -1.5000   -0.0000 C   0  0  0  0  0  0  0  0  0  0  0  0
  1  2  1  0  0  0  0
  2  3  2  0  0  0  0
  2  4  1  0  0  0  0
  3  5  1  0  0  0  0
  3  6  1  0  0  0  0
  4  7  2  0  0  0  0
  5  8  2  0  0  0  0
  6  9  1  0  0  0  0
  9 10  1  0  0  0  0
  9 11  1  0  0  0  0
 10 12  1  0  0  0  0
 10 13  2  0  0  0  0
 11 14  2  0  0  0  0
 11 15  1  0  0  0  0
 13 16  1  0  0  0  0
 14 17  1  0  0  0  0
 15 18  2  0  0  0  0
 16 19  2  3  0  0  0
 17 20  2  0  0  0  0
 19 21  1  0  0  0  0
 21 22  2  0  0  0  0
 21 23  1  0  0  0  0
 23 24  1  0  0  0  0
 24 25  1  0  0  0  0
 25 26  2  0  0  0  0
 25 27  1  0  0  0  0
 26 28  1  0  0  0  0
 27 29  2  0  0  0  0
 28 30  1  0  0  0  0
 28 31  2  0  0  0  0
 30 32  1  0  0  0  0
 31 33  1  0  0  0  0
 32 34  2  0  0  0  0
 32 35  1  0  0  0  0
  7  8  1  0  0  0  0
 13 14  1  0  0  0  0
 18 20  1  0  0  0  0
 29 31  1  0  0  0  0
 33 35  2  0  0  0  0
M  END
>  <S/N>
295

>  <Compound ID>
C_310

>  <PubChem CID>
137179333

>  <Isomeric SMILES>
C1=CC=C(C(=C1)CN2C3=CC=CC=C3C(=C2O)N=NC(=O)COC4=CC5=C(C=C4)C=CC(=O)O5)F

>  <IC50 (�M)>
2.5

>  <pIC50>
5.6

$$$$
C_311
Actelion Java MolfileCreator 1.0

 35 39  0  0  0  0  0  0  0  0999 V2000
   10.9380   -2.1409   -0.0000 F   0  0  0  0  0  0  0  0  0  0  0  0
    9.9434   -2.2454   -0.0000 C   0  0  0  0  0  0  0  0  0  0  0  0
    9.3557   -1.4364   -0.0000 C   0  0  0  0  0  0  0  0  0  0  0  0
    9.5367   -3.1589   -0.0000 C   0  0  0  0  0  0  0  0  0  0  0  0
    8.3611   -1.5409   -0.0000 C   0  0  0  0  0  0  0  0  0  0  0  0
    8.5422   -3.2635   -0.0000 C   0  0  0  0  0  0  0  0  0  0  0  0
    7.9544   -2.4544   -0.0000 C   0  0  0  0  0  0  0  0  0  0  0  0
    7.7734   -0.7319   -0.0000 C   0  0  0  0  0  0  0  0  0  0  0  0
    6.7788   -0.8364   -0.0000 N   0  0  0  0  0  0  0  0  0  0  0  0
    6.1097   -0.0933   -0.0000 C   0  0  0  0  0  0  0  0  0  0  0  0
    6.2788   -1.7024   -0.0000 C   0  0  0  0  0  0  0  0  0  0  0  0
    6.3176    0.8849   -0.0000 O   0  0  0  0  0  0  0  0  0  0  0  0
    5.1962   -0.5000   -0.0000 C   0  0  0  0  0  0  0  0  0  0  0  0
    5.3007   -1.4945   -0.0000 C   0  0  0  0  0  0  0  0  0  0  0  0
    6.5878   -2.6535   -0.0000 C   0  0  0  0  0  0  0  0  0  0  0  0
    4.3301   -0.0000   -0.0000 N   0  0  0  0  0  0  0  0  0  0  0  0
    4.6316   -2.2377   -0.0000 C   0  0  0  0  0  0  0  0  0  0  0  0
    5.9187   -3.3966   -0.0000 C   0  0  0  0  0  0  0  0  0  0  0  0
    3.4641   -0.5000   -0.0000 N   0  0  0  0  0  0  0  0  0  0  0  0
    4.9406   -3.1887   -0.0000 C   0  0  0  0  0  0  0  0  0  0  0  0
    2.5981   -0.0000   -0.0000 C   0  0  0  0  0  0  0  0  0  0  0  0
    2.5981    1.0000   -0.0000 O   0  0  0  0  0  0  0  0  0  0  0  0
    1.7321   -0.5000   -0.0000 C   0  0  0  0  0  0  0  0  0  0  0  0
    0.8660   -0.0000   -0.0000 O   0  0  0  0  0  0  0  0  0  0  0  0
    0.0000   -0.5000   -0.0000 C   0  0  0  0  0  0  0  0  0  0  0  0
   -0.8660    0.0000   -0.0000 C   0  0  0  0  0  0  0  0  0  0  0  0
   -0.0000   -1.5000   -0.0000 C   0  0  0  0  0  0  0  0  0  0  0  0
   -1.7321   -0.5000   -0.0000 C   0  0  0  0  0  0  0  0  0  0  0  0
   -0.8660   -2.0000   -0.0000 C   0  0  0  0  0  0  0  0  0  0  0  0
   -2.5981    0.0000   -0.0000 O   0  0  0  0  0  0  0  0  0  0  0  0
   -1.7321   -1.5000   -0.0000 C   0  0  0  0  0  0  0  0  0  0  0  0
   -3.4641   -0.5000   -0.0000 C   0  0  0  0  0  0  0  0  0  0  0  0
   -2.5981   -2.0000   -0.0000 C   0  0  0  0  0  0  0  0  0  0  0  0
   -4.3301    0.0000   -0.0000 O   0  0  0  0  0  0  0  0  0  0  0  0
   -3.4641   -1.5000   -0.0000 C   0  0  0  0  0  0  0  0  0  0  0  0
  1  2  1  0  0  0  0
  2  3  2  0  0  0  0
  2  4  1  0  0  0  0
  3  5  1  0  0  0  0
  4  6  2  0  0  0  0
  5  7  2  0  0  0  0
  5  8  1  0  0  0  0
  8  9  1  0  0  0  0
  9 10  1  0  0  0  0
  9 11  1  0  0  0  0
 10 12  1  0  0  0  0
 10 13  2  0  0  0  0
 11 14  2  0  0  0  0
 11 15  1  0  0  0  0
 13 16  1  0  0  0  0
 14 17  1  0  0  0  0
 15 18  2  0  0  0  0
 16 19  2  3  0  0  0
 17 20  2  0  0  0  0
 19 21  1  0  0  0  0
 21 22  2  0  0  0  0
 21 23  1  0  0  0  0
 23 24  1  0  0  0  0
 24 25  1  0  0  0  0
 25 26  2  0  0  0  0
 25 27  1  0  0  0  0
 26 28  1  0  0  0  0
 27 29  2  0  0  0  0
 28 30  1  0  0  0  0
 28 31  2  0  0  0  0
 30 32  1  0  0  0  0
 31 33  1  0  0  0  0
 32 34  2  0  0  0  0
 32 35  1  0  0  0  0
  6  7  1  0  0  0  0
 13 14  1  0  0  0  0
 18 20  1  0  0  0  0
 29 31  1  0  0  0  0
 33 35  2  0  0  0  0
M  END
>  <S/N>
296

>  <Compound ID>
C_311

>  <PubChem CID>
137179334

>  <Isomeric SMILES>
C1=CC=C2C(=C1)C(=C(N2CC3=CC(=CC=C3)F)O)N=NC(=O)COC4=CC5=C(C=C4)C=CC(=O)O5

>  <IC50 (�M)>
2.5

>  <pIC50>
5.6

$$$$
C_312
Actelion Java MolfileCreator 1.0

 35 39  0  0  0  0  0  0  0  0999 V2000
    9.7624   -0.5228   -0.0000 Cl  0  0  0  0  0  0  0  0  0  0  0  0
    9.3557   -1.4364   -0.0000 C   0  0  0  0  0  0  0  0  0  0  0  0
    8.3611   -1.5409   -0.0000 C   0  0  0  0  0  0  0  0  0  0  0  0
    9.9434   -2.2454   -0.0000 C   0  0  0  0  0  0  0  0  0  0  0  0
    7.9544   -2.4544   -0.0000 C   0  0  0  0  0  0  0  0  0  0  0  0
    7.7734   -0.7319   -0.0000 C   0  0  0  0  0  0  0  0  0  0  0  0
    9.5367   -3.1589   -0.0000 C   0  0  0  0  0  0  0  0  0  0  0  0
    8.5422   -3.2635   -0.0000 C   0  0  0  0  0  0  0  0  0  0  0  0
    6.7788   -0.8364   -0.0000 N   0  0  0  0  0  0  0  0  0  0  0  0
    6.1097   -0.0933   -0.0000 C   0  0  0  0  0  0  0  0  0  0  0  0
    6.2788   -1.7024   -0.0000 C   0  0  0  0  0  0  0  0  0  0  0  0
    6.3176    0.8849   -0.0000 O   0  0  0  0  0  0  0  0  0  0  0  0
    5.1962   -0.5000   -0.0000 C   0  0  0  0  0  0  0  0  0  0  0  0
    5.3007   -1.4945   -0.0000 C   0  0  0  0  0  0  0  0  0  0  0  0
    6.5878   -2.6535   -0.0000 C   0  0  0  0  0  0  0  0  0  0  0  0
    4.3301   -0.0000   -0.0000 N   0  0  0  0  0  0  0  0  0  0  0  0
    4.6316   -2.2377   -0.0000 C   0  0  0  0  0  0  0  0  0  0  0  0
    5.9187   -3.3966   -0.0000 C   0  0  0  0  0  0  0  0  0  0  0  0
    3.4641   -0.5000   -0.0000 N   0  0  0  0  0  0  0  0  0  0  0  0
    4.9406   -3.1887   -0.0000 C   0  0  0  0  0  0  0  0  0  0  0  0
    2.5981   -0.0000   -0.0000 C   0  0  0  0  0  0  0  0  0  0  0  0
    2.5981    1.0000   -0.0000 O   0  0  0  0  0  0  0  0  0  0  0  0
    1.7321   -0.5000   -0.0000 C   0  0  0  0  0  0  0  0  0  0  0  0
    0.8660   -0.0000   -0.0000 O   0  0  0  0  0  0  0  0  0  0  0  0
    0.0000   -0.5000   -0.0000 C   0  0  0  0  0  0  0  0  0  0  0  0
   -0.8660    0.0000   -0.0000 C   0  0  0  0  0  0  0  0  0  0  0  0
   -0.0000   -1.5000   -0.0000 C   0  0  0  0  0  0  0  0  0  0  0  0
   -1.7321   -0.5000   -0.0000 C   0  0  0  0  0  0  0  0  0  0  0  0
   -0.8660   -2.0000   -0.0000 C   0  0  0  0  0  0  0  0  0  0  0  0
   -2.5981    0.0000   -0.0000 O   0  0  0  0  0  0  0  0  0  0  0  0
   -1.7321   -1.5000   -0.0000 C   0  0  0  0  0  0  0  0  0  0  0  0
   -3.4641   -0.5000   -0.0000 C   0  0  0  0  0  0  0  0  0  0  0  0
   -2.5981   -2.0000   -0.0000 C   0  0  0  0  0  0  0  0  0  0  0  0
   -4.3301    0.0000   -0.0000 O   0  0  0  0  0  0  0  0  0  0  0  0
   -3.4641   -1.5000   -0.0000 C   0  0  0  0  0  0  0  0  0  0  0  0
  1  2  1  0  0  0  0
  2  3  2  0  0  0  0
  2  4  1  0  0  0  0
  3  5  1  0  0  0  0
  3  6  1  0  0  0  0
  4  7  2  0  0  0  0
  5  8  2  0  0  0  0
  6  9  1  0  0  0  0
  9 10  1  0  0  0  0
  9 11  1  0  0  0  0
 10 12  1  0  0  0  0
 10 13  2  0  0  0  0
 11 14  2  0  0  0  0
 11 15  1  0  0  0  0
 13 16  1  0  0  0  0
 14 17  1  0  0  0  0
 15 18  2  0  0  0  0
 16 19  2  3  0  0  0
 17 20  2  0  0  0  0
 19 21  1  0  0  0  0
 21 22  2  0  0  0  0
 21 23  1  0  0  0  0
 23 24  1  0  0  0  0
 24 25  1  0  0  0  0
 25 26  2  0  0  0  0
 25 27  1  0  0  0  0
 26 28  1  0  0  0  0
 27 29  2  0  0  0  0
 28 30  1  0  0  0  0
 28 31  2  0  0  0  0
 30 32  1  0  0  0  0
 31 33  1  0  0  0  0
 32 34  2  0  0  0  0
 32 35  1  0  0  0  0
  7  8  1  0  0  0  0
 13 14  1  0  0  0  0
 18 20  1  0  0  0  0
 29 31  1  0  0  0  0
 33 35  2  0  0  0  0
M  END
>  <S/N>
297

>  <Compound ID>
C_312

>  <PubChem CID>
137179335

>  <Isomeric SMILES>
C1=CC=C(C(=C1)CN2C3=CC=CC=C3C(=C2O)N=NC(=O)COC4=CC5=C(C=C4)C=CC(=O)O5)Cl

>  <IC50 (�M)>
2.5

>  <pIC50>
5.6

$$$$
C_313
Actelion Java MolfileCreator 1.0

 35 39  0  0  0  0  0  0  0  0999 V2000
   10.1245   -3.9679   -0.0000 Br  0  0  0  0  0  0  0  0  0  0  0  0
    9.5367   -3.1589   -0.0000 C   0  0  0  0  0  0  0  0  0  0  0  0
    9.9434   -2.2454   -0.0000 C   0  0  0  0  0  0  0  0  0  0  0  0
    8.5422   -3.2635   -0.0000 C   0  0  0  0  0  0  0  0  0  0  0  0
    9.3557   -1.4364   -0.0000 C   0  0  0  0  0  0  0  0  0  0  0  0
    7.9544   -2.4544   -0.0000 C   0  0  0  0  0  0  0  0  0  0  0  0
    8.3611   -1.5409   -0.0000 C   0  0  0  0  0  0  0  0  0  0  0  0
    7.7734   -0.7319   -0.0000 C   0  0  0  0  0  0  0  0  0  0  0  0
    6.7788   -0.8364   -0.0000 N   0  0  0  0  0  0  0  0  0  0  0  0
    6.1097   -0.0933   -0.0000 C   0  0  0  0  0  0  0  0  0  0  0  0
    6.2788   -1.7024   -0.0000 C   0  0  0  0  0  0  0  0  0  0  0  0
    6.3176    0.8849   -0.0000 O   0  0  0  0  0  0  0  0  0  0  0  0
    5.1962   -0.5000   -0.0000 C   0  0  0  0  0  0  0  0  0  0  0  0
    5.3007   -1.4945   -0.0000 C   0  0  0  0  0  0  0  0  0  0  0  0
    6.5878   -2.6535   -0.0000 C   0  0  0  0  0  0  0  0  0  0  0  0
    4.3301   -0.0000   -0.0000 N   0  0  0  0  0  0  0  0  0  0  0  0
    4.6316   -2.2377   -0.0000 C   0  0  0  0  0  0  0  0  0  0  0  0
    5.9187   -3.3966   -0.0000 C   0  0  0  0  0  0  0  0  0  0  0  0
    3.4641   -0.5000   -0.0000 N   0  0  0  0  0  0  0  0  0  0  0  0
    4.9406   -3.1887   -0.0000 C   0  0  0  0  0  0  0  0  0  0  0  0
    2.5981   -0.0000   -0.0000 C   0  0  0  0  0  0  0  0  0  0  0  0
    2.5981    1.0000   -0.0000 O   0  0  0  0  0  0  0  0  0  0  0  0
    1.7321   -0.5000   -0.0000 C   0  0  0  0  0  0  0  0  0  0  0  0
    0.8660   -0.0000   -0.0000 O   0  0  0  0  0  0  0  0  0  0  0  0
    0.0000   -0.5000   -0.0000 C   0  0  0  0  0  0  0  0  0  0  0  0
   -0.8660    0.0000   -0.0000 C   0  0  0  0  0  0  0  0  0  0  0  0
   -0.0000   -1.5000   -0.0000 C   0  0  0  0  0  0  0  0  0  0  0  0
   -1.7321   -0.5000   -0.0000 C   0  0  0  0  0  0  0  0  0  0  0  0
   -0.8660   -2.0000   -0.0000 C   0  0  0  0  0  0  0  0  0  0  0  0
   -2.5981    0.0000   -0.0000 O   0  0  0  0  0  0  0  0  0  0  0  0
   -1.7321   -1.5000   -0.0000 C   0  0  0  0  0  0  0  0  0  0  0  0
   -3.4641   -0.5000   -0.0000 C   0  0  0  0  0  0  0  0  0  0  0  0
   -2.5981   -2.0000   -0.0000 C   0  0  0  0  0  0  0  0  0  0  0  0
   -4.3301    0.0000   -0.0000 O   0  0  0  0  0  0  0  0  0  0  0  0
   -3.4641   -1.5000   -0.0000 C   0  0  0  0  0  0  0  0  0  0  0  0
  1  2  1  0  0  0  0
  2  3  2  0  0  0  0
  2  4  1  0  0  0  0
  3  5  1  0  0  0  0
  4  6  2  0  0  0  0
  5  7  2  0  0  0  0
  7  8  1  0  0  0  0
  8  9  1  0  0  0  0
  9 10  1  0  0  0  0
  9 11  1  0  0  0  0
 10 12  1  0  0  0  0
 10 13  2  0  0  0  0
 11 14  2  0  0  0  0
 11 15  1  0  0  0  0
 13 16  1  0  0  0  0
 14 17  1  0  0  0  0
 15 18  2  0  0  0  0
 16 19  2  3  0  0  0
 17 20  2  0  0  0  0
 19 21  1  0  0  0  0
 21 22  2  0  0  0  0
 21 23  1  0  0  0  0
 23 24  1  0  0  0  0
 24 25  1  0  0  0  0
 25 26  2  0  0  0  0
 25 27  1  0  0  0  0
 26 28  1  0  0  0  0
 27 29  2  0  0  0  0
 28 30  1  0  0  0  0
 28 31  2  0  0  0  0
 30 32  1  0  0  0  0
 31 33  1  0  0  0  0
 32 34  2  0  0  0  0
 32 35  1  0  0  0  0
  6  7  1  0  0  0  0
 13 14  1  0  0  0  0
 18 20  1  0  0  0  0
 29 31  1  0  0  0  0
 33 35  2  0  0  0  0
M  END
>  <S/N>
298

>  <Compound ID>
C_313

>  <PubChem CID>
137179336

>  <Isomeric SMILES>
C1=CC=C2C(=C1)C(=C(N2CC3=CC=C(C=C3)Br)O)N=NC(=O)COC4=CC5=C(C=C4)C=CC(=O)O5

>  <IC50 (�M)>
2.5

>  <pIC50>
5.6

$$$$
C_314
Actelion Java MolfileCreator 1.0

 36 40  0  0  0  0  0  0  0  0999 V2000
    9.7624   -0.5228   -0.0000 F   0  0  0  0  0  0  0  0  0  0  0  0
    9.3557   -1.4364   -0.0000 C   0  0  0  0  0  0  0  0  0  0  0  0
    8.3611   -1.5409   -0.0000 C   0  0  0  0  0  0  0  0  0  0  0  0
    9.9434   -2.2454   -0.0000 C   0  0  0  0  0  0  0  0  0  0  0  0
    7.9544   -2.4544   -0.0000 C   0  0  0  0  0  0  0  0  0  0  0  0
    7.7734   -0.7319   -0.0000 C   0  0  0  0  0  0  0  0  0  0  0  0
    9.5367   -3.1589   -0.0000 C   0  0  0  0  0  0  0  0  0  0  0  0
    8.5422   -3.2635   -0.0000 C   0  0  0  0  0  0  0  0  0  0  0  0
    6.7788   -0.8364   -0.0000 N   0  0  0  0  0  0  0  0  0  0  0  0
    6.1097   -0.0933   -0.0000 C   0  0  0  0  0  0  0  0  0  0  0  0
    6.2788   -1.7024   -0.0000 C   0  0  0  0  0  0  0  0  0  0  0  0
    6.3176    0.8849   -0.0000 O   0  0  0  0  0  0  0  0  0  0  0  0
    5.1962   -0.5000   -0.0000 C   0  0  0  0  0  0  0  0  0  0  0  0
    5.3007   -1.4945   -0.0000 C   0  0  0  0  0  0  0  0  0  0  0  0
    6.5878   -2.6535   -0.0000 C   0  0  0  0  0  0  0  0  0  0  0  0
    4.3301   -0.0000   -0.0000 N   0  0  0  0  0  0  0  0  0  0  0  0
    4.6316   -2.2377   -0.0000 C   0  0  0  0  0  0  0  0  0  0  0  0
    5.9187   -3.3966   -0.0000 C   0  0  0  0  0  0  0  0  0  0  0  0
    3.4641   -0.5000   -0.0000 N   0  0  0  0  0  0  0  0  0  0  0  0
    4.9406   -3.1887   -0.0000 C   0  0  0  0  0  0  0  0  0  0  0  0
    2.5981   -0.0000   -0.0000 C   0  0  0  0  0  0  0  0  0  0  0  0
    4.2714   -3.9319   -0.0000 C   0  0  0  0  0  0  0  0  0  0  0  0
    2.5981    1.0000   -0.0000 O   0  0  0  0  0  0  0  0  0  0  0  0
    1.7321   -0.5000   -0.0000 C   0  0  0  0  0  0  0  0  0  0  0  0
    0.8660   -0.0000   -0.0000 O   0  0  0  0  0  0  0  0  0  0  0  0
    0.0000   -0.5000   -0.0000 C   0  0  0  0  0  0  0  0  0  0  0  0
   -0.8660    0.0000   -0.0000 C   0  0  0  0  0  0  0  0  0  0  0  0
   -0.0000   -1.5000   -0.0000 C   0  0  0  0  0  0  0  0  0  0  0  0
   -1.7321   -0.5000   -0.0000 C   0  0  0  0  0  0  0  0  0  0  0  0
   -0.8660   -2.0000   -0.0000 C   0  0  0  0  0  0  0  0  0  0  0  0
   -2.5981    0.0000   -0.0000 O   0  0  0  0  0  0  0  0  0  0  0  0
   -1.7321   -1.5000   -0.0000 C   0  0  0  0  0  0  0  0  0  0  0  0
   -3.4641   -0.5000   -0.0000 C   0  0  0  0  0  0  0  0  0  0  0  0
   -2.5981   -2.0000   -0.0000 C   0  0  0  0  0  0  0  0  0  0  0  0
   -4.3301    0.0000   -0.0000 O   0  0  0  0  0  0  0  0  0  0  0  0
   -3.4641   -1.5000   -0.0000 C   0  0  0  0  0  0  0  0  0  0  0  0
  1  2  1  0  0  0  0
  2  3  2  0  0  0  0
  2  4  1  0  0  0  0
  3  5  1  0  0  0  0
  3  6  1  0  0  0  0
  4  7  2  0  0  0  0
  5  8  2  0  0  0  0
  6  9  1  0  0  0  0
  9 10  1  0  0  0  0
  9 11  1  0  0  0  0
 10 12  1  0  0  0  0
 10 13  2  0  0  0  0
 11 14  2  0  0  0  0
 11 15  1  0  0  0  0
 13 16  1  0  0  0  0
 14 17  1  0  0  0  0
 15 18  2  0  0  0  0
 16 19  2  3  0  0  0
 17 20  2  0  0  0  0
 19 21  1  0  0  0  0
 20 22  1  0  0  0  0
 21 23  2  0  0  0  0
 21 24  1  0  0  0  0
 24 25  1  0  0  0  0
 25 26  1  0  0  0  0
 26 27  2  0  0  0  0
 26 28  1  0  0  0  0
 27 29  1  0  0  0  0
 28 30  2  0  0  0  0
 29 31  1  0  0  0  0
 29 32  2  0  0  0  0
 31 33  1  0  0  0  0
 32 34  1  0  0  0  0
 33 35  2  0  0  0  0
 33 36  1  0  0  0  0
  7  8  1  0  0  0  0
 13 14  1  0  0  0  0
 18 20  1  0  0  0  0
 30 32  1  0  0  0  0
 34 36  2  0  0  0  0
M  END
>  <S/N>
299

>  <Compound ID>
C_314

>  <PubChem CID>
137179337

>  <Isomeric SMILES>
CC1=CC2=C(C=C1)N(C(=C2N=NC(=O)COC3=CC4=C(C=C3)C=CC(=O)O4)O)CC5=CC=CC=C5F

>  <IC50 (�M)>
2.5

>  <pIC50>
5.6

$$$$
C_315
Actelion Java MolfileCreator 1.0

 36 40  0  0  0  0  0  0  0  0999 V2000
   10.9380   -2.1409   -0.0000 F   0  0  0  0  0  0  0  0  0  0  0  0
    9.9434   -2.2454   -0.0000 C   0  0  0  0  0  0  0  0  0  0  0  0
    9.3557   -1.4364   -0.0000 C   0  0  0  0  0  0  0  0  0  0  0  0
    9.5367   -3.1589   -0.0000 C   0  0  0  0  0  0  0  0  0  0  0  0
    8.3611   -1.5409   -0.0000 C   0  0  0  0  0  0  0  0  0  0  0  0
    8.5422   -3.2635   -0.0000 C   0  0  0  0  0  0  0  0  0  0  0  0
    7.9544   -2.4544   -0.0000 C   0  0  0  0  0  0  0  0  0  0  0  0
    7.7734   -0.7319   -0.0000 C   0  0  0  0  0  0  0  0  0  0  0  0
    6.7788   -0.8364   -0.0000 N   0  0  0  0  0  0  0  0  0  0  0  0
    6.1097   -0.0933   -0.0000 C   0  0  0  0  0  0  0  0  0  0  0  0
    6.2788   -1.7024   -0.0000 C   0  0  0  0  0  0  0  0  0  0  0  0
    6.3176    0.8849   -0.0000 O   0  0  0  0  0  0  0  0  0  0  0  0
    5.1962   -0.5000   -0.0000 C   0  0  0  0  0  0  0  0  0  0  0  0
    5.3007   -1.4945   -0.0000 C   0  0  0  0  0  0  0  0  0  0  0  0
    6.5878   -2.6535   -0.0000 C   0  0  0  0  0  0  0  0  0  0  0  0
    4.3301   -0.0000   -0.0000 N   0  0  0  0  0  0  0  0  0  0  0  0
    4.6316   -2.2377   -0.0000 C   0  0  0  0  0  0  0  0  0  0  0  0
    5.9187   -3.3966   -0.0000 C   0  0  0  0  0  0  0  0  0  0  0  0
    3.4641   -0.5000   -0.0000 N   0  0  0  0  0  0  0  0  0  0  0  0
    4.9406   -3.1887   -0.0000 C   0  0  0  0  0  0  0  0  0  0  0  0
    2.5981   -0.0000   -0.0000 C   0  0  0  0  0  0  0  0  0  0  0  0
    4.2714   -3.9319   -0.0000 C   0  0  0  0  0  0  0  0  0  0  0  0
    2.5981    1.0000   -0.0000 O   0  0  0  0  0  0  0  0  0  0  0  0
    1.7321   -0.5000   -0.0000 C   0  0  0  0  0  0  0  0  0  0  0  0
    0.8660   -0.0000   -0.0000 O   0  0  0  0  0  0  0  0  0  0  0  0
    0.0000   -0.5000   -0.0000 C   0  0  0  0  0  0  0  0  0  0  0  0
   -0.8660    0.0000   -0.0000 C   0  0  0  0  0  0  0  0  0  0  0  0
   -0.0000   -1.5000   -0.0000 C   0  0  0  0  0  0  0  0  0  0  0  0
   -1.7321   -0.5000   -0.0000 C   0  0  0  0  0  0  0  0  0  0  0  0
   -0.8660   -2.0000   -0.0000 C   0  0  0  0  0  0  0  0  0  0  0  0
   -2.5981    0.0000   -0.0000 O   0  0  0  0  0  0  0  0  0  0  0  0
   -1.7321   -1.5000   -0.0000 C   0  0  0  0  0  0  0  0  0  0  0  0
   -3.4641   -0.5000   -0.0000 C   0  0  0  0  0  0  0  0  0  0  0  0
   -2.5981   -2.0000   -0.0000 C   0  0  0  0  0  0  0  0  0  0  0  0
   -4.3301    0.0000   -0.0000 O   0  0  0  0  0  0  0  0  0  0  0  0
   -3.4641   -1.5000   -0.0000 C   0  0  0  0  0  0  0  0  0  0  0  0
  1  2  1  0  0  0  0
  2  3  2  0  0  0  0
  2  4  1  0  0  0  0
  3  5  1  0  0  0  0
  4  6  2  0  0  0  0
  5  7  2  0  0  0  0
  5  8  1  0  0  0  0
  8  9  1  0  0  0  0
  9 10  1  0  0  0  0
  9 11  1  0  0  0  0
 10 12  1  0  0  0  0
 10 13  2  0  0  0  0
 11 14  2  0  0  0  0
 11 15  1  0  0  0  0
 13 16  1  0  0  0  0
 14 17  1  0  0  0  0
 15 18  2  0  0  0  0
 16 19  2  3  0  0  0
 17 20  2  0  0  0  0
 19 21  1  0  0  0  0
 20 22  1  0  0  0  0
 21 23  2  0  0  0  0
 21 24  1  0  0  0  0
 24 25  1  0  0  0  0
 25 26  1  0  0  0  0
 26 27  2  0  0  0  0
 26 28  1  0  0  0  0
 27 29  1  0  0  0  0
 28 30  2  0  0  0  0
 29 31  1  0  0  0  0
 29 32  2  0  0  0  0
 31 33  1  0  0  0  0
 32 34  1  0  0  0  0
 33 35  2  0  0  0  0
 33 36  1  0  0  0  0
  6  7  1  0  0  0  0
 13 14  1  0  0  0  0
 18 20  1  0  0  0  0
 30 32  1  0  0  0  0
 34 36  2  0  0  0  0
M  END
>  <S/N>
300

>  <Compound ID>
C_315

>  <PubChem CID>
137179338

>  <Isomeric SMILES>
CC1=CC2=C(C=C1)N(C(=C2N=NC(=O)COC3=CC4=C(C=C3)C=CC(=O)O4)O)CC5=CC(=CC=C5)F

>  <IC50 (�M)>
2.5

>  <pIC50>
5.6

$$$$
C_316
Actelion Java MolfileCreator 1.0

 36 40  0  0  0  0  0  0  0  0999 V2000
    7.7059    2.0168   -0.0000 Cl  0  0  0  0  0  0  0  0  0  0  0  0
    7.3969    1.0657   -0.0000 C   0  0  0  0  0  0  0  0  0  0  0  0
    6.4187    0.8578   -0.0000 C   0  0  0  0  0  0  0  0  0  0  0  0
    8.0660    0.3226   -0.0000 C   0  0  0  0  0  0  0  0  0  0  0  0
    6.1097   -0.0933   -0.0000 C   0  0  0  0  0  0  0  0  0  0  0  0
    7.7570   -0.6285   -0.0000 C   0  0  0  0  0  0  0  0  0  0  0  0
    5.1962   -0.5000   -0.0000 C   0  0  0  0  0  0  0  0  0  0  0  0
    6.7788   -0.8364   -0.0000 C   0  0  0  0  0  0  0  0  0  0  0  0
    4.3301   -0.0000   -0.0000 N   0  0  0  0  0  0  0  0  0  0  0  0
    5.3007   -1.4945   -0.0000 C   0  0  0  0  0  0  0  0  0  0  0  0
    6.2788   -1.7024   -0.0000 N   0  0  0  0  0  0  0  0  0  0  0  0
    3.4641   -0.5000   -0.0000 N   0  0  0  0  0  0  0  0  0  0  0  0
    4.5575   -2.1637   -0.0000 O   0  0  0  0  0  0  0  0  0  0  0  0
    6.6856   -2.6160   -0.0000 C   0  0  0  0  0  0  0  0  0  0  0  0
    2.5981   -0.0000   -0.0000 C   0  0  0  0  0  0  0  0  0  0  0  0
    7.6801   -2.7205   -0.0000 C   0  0  0  0  0  0  0  0  0  0  0  0
    2.5981    1.0000   -0.0000 O   0  0  0  0  0  0  0  0  0  0  0  0
    1.7321   -0.5000   -0.0000 C   0  0  0  0  0  0  0  0  0  0  0  0
    8.0868   -3.6341   -0.0000 C   0  0  0  0  0  0  0  0  0  0  0  0
    8.2679   -1.9115   -0.0000 C   0  0  0  0  0  0  0  0  0  0  0  0
    0.8660   -0.0000   -0.0000 O   0  0  0  0  0  0  0  0  0  0  0  0
    7.4990   -4.4431   -0.0000 F   0  0  0  0  0  0  0  0  0  0  0  0
    9.0813   -3.7386   -0.0000 C   0  0  0  0  0  0  0  0  0  0  0  0
    9.2624   -2.0160   -0.0000 C   0  0  0  0  0  0  0  0  0  0  0  0
    0.0000   -0.5000   -0.0000 C   0  0  0  0  0  0  0  0  0  0  0  0
    9.6691   -2.9296   -0.0000 C   0  0  0  0  0  0  0  0  0  0  0  0
   -0.8660    0.0000   -0.0000 C   0  0  0  0  0  0  0  0  0  0  0  0
   -0.0000   -1.5000   -0.0000 C   0  0  0  0  0  0  0  0  0  0  0  0
   -1.7321   -0.5000   -0.0000 C   0  0  0  0  0  0  0  0  0  0  0  0
   -0.8660   -2.0000   -0.0000 C   0  0  0  0  0  0  0  0  0  0  0  0
   -2.5981    0.0000   -0.0000 O   0  0  0  0  0  0  0  0  0  0  0  0
   -1.7321   -1.5000   -0.0000 C   0  0  0  0  0  0  0  0  0  0  0  0
   -3.4641   -0.5000   -0.0000 C   0  0  0  0  0  0  0  0  0  0  0  0
   -2.5981   -2.0000   -0.0000 C   0  0  0  0  0  0  0  0  0  0  0  0
   -4.3301    0.0000   -0.0000 O   0  0  0  0  0  0  0  0  0  0  0  0
   -3.4641   -1.5000   -0.0000 C   0  0  0  0  0  0  0  0  0  0  0  0
  1  2  1  0  0  0  0
  2  3  2  0  0  0  0
  2  4  1  0  0  0  0
  3  5  1  0  0  0  0
  4  6  2  0  0  0  0
  5  7  1  0  0  0  0
  5  8  2  0  0  0  0
  7  9  1  0  0  0  0
  7 10  2  0  0  0  0
  8 11  1  0  0  0  0
  9 12  2  3  0  0  0
 10 13  1  0  0  0  0
 11 14  1  0  0  0  0
 12 15  1  0  0  0  0
 14 16  1  0  0  0  0
 15 17  2  0  0  0  0
 15 18  1  0  0  0  0
 16 19  2  0  0  0  0
 16 20  1  0  0  0  0
 18 21  1  0  0  0  0
 19 22  1  0  0  0  0
 19 23  1  0  0  0  0
 20 24  2  0  0  0  0
 21 25  1  0  0  0  0
 23 26  2  0  0  0  0
 25 27  2  0  0  0  0
 25 28  1  0  0  0  0
 27 29  1  0  0  0  0
 28 30  2  0  0  0  0
 29 31  1  0  0  0  0
 29 32  2  0  0  0  0
 31 33  1  0  0  0  0
 32 34  1  0  0  0  0
 33 35  2  0  0  0  0
 33 36  1  0  0  0  0
  6  8  1  0  0  0  0
 10 11  1  0  0  0  0
 24 26  1  0  0  0  0
 30 32  1  0  0  0  0
 34 36  2  0  0  0  0
M  END
>  <S/N>
301

>  <Compound ID>
C_316

>  <PubChem CID>
137179339

>  <Isomeric SMILES>
C1=CC=C(C(=C1)CN2C3=C(C=C(C=C3)Cl)C(=C2O)N=NC(=O)COC4=CC5=C(C=C4)C=CC(=O)O5)F

>  <IC50 (�M)>
2.5

>  <pIC50>
5.6

$$$$
C_317
Actelion Java MolfileCreator 1.0

 36 40  0  0  0  0  0  0  0  0999 V2000
    7.7059    2.0168   -0.0000 Cl  0  0  0  0  0  0  0  0  0  0  0  0
    7.3969    1.0657   -0.0000 C   0  0  0  0  0  0  0  0  0  0  0  0
    6.4187    0.8578   -0.0000 C   0  0  0  0  0  0  0  0  0  0  0  0
    8.0660    0.3226   -0.0000 C   0  0  0  0  0  0  0  0  0  0  0  0
    6.1097   -0.0933   -0.0000 C   0  0  0  0  0  0  0  0  0  0  0  0
    7.7570   -0.6285   -0.0000 C   0  0  0  0  0  0  0  0  0  0  0  0
    5.1962   -0.5000   -0.0000 C   0  0  0  0  0  0  0  0  0  0  0  0
    6.7788   -0.8364   -0.0000 C   0  0  0  0  0  0  0  0  0  0  0  0
    4.3301   -0.0000   -0.0000 N   0  0  0  0  0  0  0  0  0  0  0  0
    5.3007   -1.4945   -0.0000 C   0  0  0  0  0  0  0  0  0  0  0  0
    6.2788   -1.7024   -0.0000 N   0  0  0  0  0  0  0  0  0  0  0  0
    3.4641   -0.5000   -0.0000 N   0  0  0  0  0  0  0  0  0  0  0  0
    4.5575   -2.1637   -0.0000 O   0  0  0  0  0  0  0  0  0  0  0  0
    6.6856   -2.6160   -0.0000 C   0  0  0  0  0  0  0  0  0  0  0  0
    2.5981   -0.0000   -0.0000 C   0  0  0  0  0  0  0  0  0  0  0  0
    7.6801   -2.7205   -0.0000 C   0  0  0  0  0  0  0  0  0  0  0  0
    2.5981    1.0000   -0.0000 O   0  0  0  0  0  0  0  0  0  0  0  0
    1.7321   -0.5000   -0.0000 C   0  0  0  0  0  0  0  0  0  0  0  0
    8.0868   -3.6341   -0.0000 C   0  0  0  0  0  0  0  0  0  0  0  0
    8.2679   -1.9115   -0.0000 C   0  0  0  0  0  0  0  0  0  0  0  0
    0.8660   -0.0000   -0.0000 O   0  0  0  0  0  0  0  0  0  0  0  0
    9.0813   -3.7386   -0.0000 C   0  0  0  0  0  0  0  0  0  0  0  0
    9.2624   -2.0160   -0.0000 C   0  0  0  0  0  0  0  0  0  0  0  0
    0.0000   -0.5000   -0.0000 C   0  0  0  0  0  0  0  0  0  0  0  0
    9.4881   -4.6521   -0.0000 F   0  0  0  0  0  0  0  0  0  0  0  0
    9.6691   -2.9296   -0.0000 C   0  0  0  0  0  0  0  0  0  0  0  0
   -0.8660    0.0000   -0.0000 C   0  0  0  0  0  0  0  0  0  0  0  0
   -0.0000   -1.5000   -0.0000 C   0  0  0  0  0  0  0  0  0  0  0  0
   -1.7321   -0.5000   -0.0000 C   0  0  0  0  0  0  0  0  0  0  0  0
   -0.8660   -2.0000   -0.0000 C   0  0  0  0  0  0  0  0  0  0  0  0
   -2.5981    0.0000   -0.0000 O   0  0  0  0  0  0  0  0  0  0  0  0
   -1.7321   -1.5000   -0.0000 C   0  0  0  0  0  0  0  0  0  0  0  0
   -3.4641   -0.5000   -0.0000 C   0  0  0  0  0  0  0  0  0  0  0  0
   -2.5981   -2.0000   -0.0000 C   0  0  0  0  0  0  0  0  0  0  0  0
   -4.3301    0.0000   -0.0000 O   0  0  0  0  0  0  0  0  0  0  0  0
   -3.4641   -1.5000   -0.0000 C   0  0  0  0  0  0  0  0  0  0  0  0
  1  2  1  0  0  0  0
  2  3  2  0  0  0  0
  2  4  1  0  0  0  0
  3  5  1  0  0  0  0
  4  6  2  0  0  0  0
  5  7  1  0  0  0  0
  5  8  2  0  0  0  0
  7  9  1  0  0  0  0
  7 10  2  0  0  0  0
  8 11  1  0  0  0  0
  9 12  2  3  0  0  0
 10 13  1  0  0  0  0
 11 14  1  0  0  0  0
 12 15  1  0  0  0  0
 14 16  1  0  0  0  0
 15 17  2  0  0  0  0
 15 18  1  0  0  0  0
 16 19  2  0  0  0  0
 16 20  1  0  0  0  0
 18 21  1  0  0  0  0
 19 22  1  0  0  0  0
 20 23  2  0  0  0  0
 21 24  1  0  0  0  0
 22 25  1  0  0  0  0
 22 26  2  0  0  0  0
 24 27  2  0  0  0  0
 24 28  1  0  0  0  0
 27 29  1  0  0  0  0
 28 30  2  0  0  0  0
 29 31  1  0  0  0  0
 29 32  2  0  0  0  0
 31 33  1  0  0  0  0
 32 34  1  0  0  0  0
 33 35  2  0  0  0  0
 33 36  1  0  0  0  0
  6  8  1  0  0  0  0
 10 11  1  0  0  0  0
 23 26  1  0  0  0  0
 30 32  1  0  0  0  0
 34 36  2  0  0  0  0
M  END
>  <S/N>
302

>  <Compound ID>
C_317

>  <PubChem CID>
137179340

>  <Isomeric SMILES>
C1=CC(=CC(=C1)F)CN2C3=C(C=C(C=C3)Cl)C(=C2O)N=NC(=O)COC4=CC5=C(C=C4)C=CC(=O)O5

>  <IC50 (�M)>
2.5

>  <pIC50>
5.6

$$$$
C_318
Actelion Java MolfileCreator 1.0

 35 39  0  0  0  0  0  0  0  0999 V2000
    7.7059    2.0168   -0.0000 Br  0  0  0  0  0  0  0  0  0  0  0  0
    7.3969    1.0657   -0.0000 C   0  0  0  0  0  0  0  0  0  0  0  0
    6.4187    0.8578   -0.0000 C   0  0  0  0  0  0  0  0  0  0  0  0
    8.0660    0.3226   -0.0000 C   0  0  0  0  0  0  0  0  0  0  0  0
    6.1097   -0.0933   -0.0000 C   0  0  0  0  0  0  0  0  0  0  0  0
    7.7570   -0.6285   -0.0000 C   0  0  0  0  0  0  0  0  0  0  0  0
    5.1962   -0.5000   -0.0000 C   0  0  0  0  0  0  0  0  0  0  0  0
    6.7788   -0.8364   -0.0000 C   0  0  0  0  0  0  0  0  0  0  0  0
    4.3301   -0.0000   -0.0000 N   0  0  0  0  0  0  0  0  0  0  0  0
    5.3007   -1.4945   -0.0000 C   0  0  0  0  0  0  0  0  0  0  0  0
    6.2788   -1.7024   -0.0000 N   0  0  0  0  0  0  0  0  0  0  0  0
    3.4641   -0.5000   -0.0000 N   0  0  0  0  0  0  0  0  0  0  0  0
    4.5575   -2.1637   -0.0000 O   0  0  0  0  0  0  0  0  0  0  0  0
    6.6856   -2.6160   -0.0000 C   0  0  0  0  0  0  0  0  0  0  0  0
    2.5981   -0.0000   -0.0000 C   0  0  0  0  0  0  0  0  0  0  0  0
    7.6801   -2.7205   -0.0000 C   0  0  0  0  0  0  0  0  0  0  0  0
    2.5981    1.0000   -0.0000 O   0  0  0  0  0  0  0  0  0  0  0  0
    1.7321   -0.5000   -0.0000 C   0  0  0  0  0  0  0  0  0  0  0  0
    8.0868   -3.6341   -0.0000 C   0  0  0  0  0  0  0  0  0  0  0  0
    8.2679   -1.9115   -0.0000 C   0  0  0  0  0  0  0  0  0  0  0  0
    0.8660   -0.0000   -0.0000 O   0  0  0  0  0  0  0  0  0  0  0  0
    9.0813   -3.7386   -0.0000 C   0  0  0  0  0  0  0  0  0  0  0  0
    9.2624   -2.0160   -0.0000 C   0  0  0  0  0  0  0  0  0  0  0  0
    0.0000   -0.5000   -0.0000 C   0  0  0  0  0  0  0  0  0  0  0  0
    9.6691   -2.9296   -0.0000 C   0  0  0  0  0  0  0  0  0  0  0  0
   -0.8660    0.0000   -0.0000 C   0  0  0  0  0  0  0  0  0  0  0  0
   -0.0000   -1.5000   -0.0000 C   0  0  0  0  0  0  0  0  0  0  0  0
   -1.7321   -0.5000   -0.0000 C   0  0  0  0  0  0  0  0  0  0  0  0
   -0.8660   -2.0000   -0.0000 C   0  0  0  0  0  0  0  0  0  0  0  0
   -2.5981    0.0000   -0.0000 O   0  0  0  0  0  0  0  0  0  0  0  0
   -1.7321   -1.5000   -0.0000 C   0  0  0  0  0  0  0  0  0  0  0  0
   -3.4641   -0.5000   -0.0000 C   0  0  0  0  0  0  0  0  0  0  0  0
   -2.5981   -2.0000   -0.0000 C   0  0  0  0  0  0  0  0  0  0  0  0
   -4.3301    0.0000   -0.0000 O   0  0  0  0  0  0  0  0  0  0  0  0
   -3.4641   -1.5000   -0.0000 C   0  0  0  0  0  0  0  0  0  0  0  0
  1  2  1  0  0  0  0
  2  3  2  0  0  0  0
  2  4  1  0  0  0  0
  3  5  1  0  0  0  0
  4  6  2  0  0  0  0
  5  7  1  0  0  0  0
  5  8  2  0  0  0  0
  7  9  1  0  0  0  0
  7 10  2  0  0  0  0
  8 11  1  0  0  0  0
  9 12  2  3  0  0  0
 10 13  1  0  0  0  0
 11 14  1  0  0  0  0
 12 15  1  0  0  0  0
 14 16  1  0  0  0  0
 15 17  2  0  0  0  0
 15 18  1  0  0  0  0
 16 19  2  0  0  0  0
 16 20  1  0  0  0  0
 18 21  1  0  0  0  0
 19 22  1  0  0  0  0
 20 23  2  0  0  0  0
 21 24  1  0  0  0  0
 22 25  2  0  0  0  0
 24 26  2  0  0  0  0
 24 27  1  0  0  0  0
 26 28  1  0  0  0  0
 27 29  2  0  0  0  0
 28 30  1  0  0  0  0
 28 31  2  0  0  0  0
 30 32  1  0  0  0  0
 31 33  1  0  0  0  0
 32 34  2  0  0  0  0
 32 35  1  0  0  0  0
  6  8  1  0  0  0  0
 10 11  1  0  0  0  0
 23 25  1  0  0  0  0
 29 31  1  0  0  0  0
 33 35  2  0  0  0  0
M  END
>  <S/N>
303

>  <Compound ID>
C_318

>  <PubChem CID>
137179341

>  <Isomeric SMILES>
C1=CC=C(C=C1)CN2C3=C(C=C(C=C3)Br)C(=C2O)N=NC(=O)COC4=CC5=C(C=C4)C=CC(=O)O5

>  <IC50 (�M)>
2.5

>  <pIC50>
5.6

$$$$
C_319
Actelion Java MolfileCreator 1.0

 36 40  0  0  0  0  0  0  0  0999 V2000
    7.7059    2.0168   -0.0000 Br  0  0  0  0  0  0  0  0  0  0  0  0
    7.3969    1.0657   -0.0000 C   0  0  0  0  0  0  0  0  0  0  0  0
    6.4187    0.8578   -0.0000 C   0  0  0  0  0  0  0  0  0  0  0  0
    8.0660    0.3226   -0.0000 C   0  0  0  0  0  0  0  0  0  0  0  0
    6.1097   -0.0933   -0.0000 C   0  0  0  0  0  0  0  0  0  0  0  0
    7.7570   -0.6285   -0.0000 C   0  0  0  0  0  0  0  0  0  0  0  0
    5.1962   -0.5000   -0.0000 C   0  0  0  0  0  0  0  0  0  0  0  0
    6.7788   -0.8364   -0.0000 C   0  0  0  0  0  0  0  0  0  0  0  0
    4.3301   -0.0000   -0.0000 N   0  0  0  0  0  0  0  0  0  0  0  0
    5.3007   -1.4945   -0.0000 C   0  0  0  0  0  0  0  0  0  0  0  0
    6.2788   -1.7024   -0.0000 N   0  0  0  0  0  0  0  0  0  0  0  0
    3.4641   -0.5000   -0.0000 N   0  0  0  0  0  0  0  0  0  0  0  0
    4.5575   -2.1637   -0.0000 O   0  0  0  0  0  0  0  0  0  0  0  0
    6.6856   -2.6160   -0.0000 C   0  0  0  0  0  0  0  0  0  0  0  0
    2.5981   -0.0000   -0.0000 C   0  0  0  0  0  0  0  0  0  0  0  0
    7.6801   -2.7205   -0.0000 C   0  0  0  0  0  0  0  0  0  0  0  0
    2.5981    1.0000   -0.0000 O   0  0  0  0  0  0  0  0  0  0  0  0
    1.7321   -0.5000   -0.0000 C   0  0  0  0  0  0  0  0  0  0  0  0
    8.0868   -3.6341   -0.0000 C   0  0  0  0  0  0  0  0  0  0  0  0
    8.2679   -1.9115   -0.0000 C   0  0  0  0  0  0  0  0  0  0  0  0
    0.8660   -0.0000   -0.0000 O   0  0  0  0  0  0  0  0  0  0  0  0
    7.4990   -4.4431   -0.0000 Cl  0  0  0  0  0  0  0  0  0  0  0  0
    9.0813   -3.7386   -0.0000 C   0  0  0  0  0  0  0  0  0  0  0  0
    9.2624   -2.0160   -0.0000 C   0  0  0  0  0  0  0  0  0  0  0  0
    0.0000   -0.5000   -0.0000 C   0  0  0  0  0  0  0  0  0  0  0  0
    9.6691   -2.9296   -0.0000 C   0  0  0  0  0  0  0  0  0  0  0  0
   -0.8660    0.0000   -0.0000 C   0  0  0  0  0  0  0  0  0  0  0  0
   -0.0000   -1.5000   -0.0000 C   0  0  0  0  0  0  0  0  0  0  0  0
   -1.7321   -0.5000   -0.0000 C   0  0  0  0  0  0  0  0  0  0  0  0
   -0.8660   -2.0000   -0.0000 C   0  0  0  0  0  0  0  0  0  0  0  0
   -2.5981    0.0000   -0.0000 O   0  0  0  0  0  0  0  0  0  0  0  0
   -1.7321   -1.5000   -0.0000 C   0  0  0  0  0  0  0  0  0  0  0  0
   -3.4641   -0.5000   -0.0000 C   0  0  0  0  0  0  0  0  0  0  0  0
   -2.5981   -2.0000   -0.0000 C   0  0  0  0  0  0  0  0  0  0  0  0
   -4.3301    0.0000   -0.0000 O   0  0  0  0  0  0  0  0  0  0  0  0
   -3.4641   -1.5000   -0.0000 C   0  0  0  0  0  0  0  0  0  0  0  0
  1  2  1  0  0  0  0
  2  3  2  0  0  0  0
  2  4  1  0  0  0  0
  3  5  1  0  0  0  0
  4  6  2  0  0  0  0
  5  7  1  0  0  0  0
  5  8  2  0  0  0  0
  7  9  1  0  0  0  0
  7 10  2  0  0  0  0
  8 11  1  0  0  0  0
  9 12  2  3  0  0  0
 10 13  1  0  0  0  0
 11 14  1  0  0  0  0
 12 15  1  0  0  0  0
 14 16  1  0  0  0  0
 15 17  2  0  0  0  0
 15 18  1  0  0  0  0
 16 19  2  0  0  0  0
 16 20  1  0  0  0  0
 18 21  1  0  0  0  0
 19 22  1  0  0  0  0
 19 23  1  0  0  0  0
 20 24  2  0  0  0  0
 21 25  1  0  0  0  0
 23 26  2  0  0  0  0
 25 27  2  0  0  0  0
 25 28  1  0  0  0  0
 27 29  1  0  0  0  0
 28 30  2  0  0  0  0
 29 31  1  0  0  0  0
 29 32  2  0  0  0  0
 31 33  1  0  0  0  0
 32 34  1  0  0  0  0
 33 35  2  0  0  0  0
 33 36  1  0  0  0  0
  6  8  1  0  0  0  0
 10 11  1  0  0  0  0
 24 26  1  0  0  0  0
 30 32  1  0  0  0  0
 34 36  2  0  0  0  0
M  END
>  <S/N>
304

>  <Compound ID>
C_319

>  <PubChem CID>
137179342

>  <Isomeric SMILES>
C1=CC=C(C(=C1)CN2C3=C(C=C(C=C3)Br)C(=C2O)N=NC(=O)COC4=CC5=C(C=C4)C=CC(=O)O5)Cl

>  <IC50 (�M)>
2.5

>  <pIC50>
5.6

$$$$
C_320
Actelion Java MolfileCreator 1.0

 36 40  0  0  0  0  0  0  0  0999 V2000
    7.7059    2.0168   -0.0000 Br  0  0  0  0  0  0  0  0  0  0  0  0
    7.3969    1.0657   -0.0000 C   0  0  0  0  0  0  0  0  0  0  0  0
    6.4187    0.8578   -0.0000 C   0  0  0  0  0  0  0  0  0  0  0  0
    8.0660    0.3226   -0.0000 C   0  0  0  0  0  0  0  0  0  0  0  0
    6.1097   -0.0933   -0.0000 C   0  0  0  0  0  0  0  0  0  0  0  0
    7.7570   -0.6285   -0.0000 C   0  0  0  0  0  0  0  0  0  0  0  0
    5.1962   -0.5000   -0.0000 C   0  0  0  0  0  0  0  0  0  0  0  0
    6.7788   -0.8364   -0.0000 C   0  0  0  0  0  0  0  0  0  0  0  0
    4.3301   -0.0000   -0.0000 N   0  0  0  0  0  0  0  0  0  0  0  0
    5.3007   -1.4945   -0.0000 C   0  0  0  0  0  0  0  0  0  0  0  0
    6.2788   -1.7024   -0.0000 N   0  0  0  0  0  0  0  0  0  0  0  0
    3.4641   -0.5000   -0.0000 N   0  0  0  0  0  0  0  0  0  0  0  0
    4.5575   -2.1637   -0.0000 O   0  0  0  0  0  0  0  0  0  0  0  0
    6.6856   -2.6160   -0.0000 C   0  0  0  0  0  0  0  0  0  0  0  0
    2.5981   -0.0000   -0.0000 C   0  0  0  0  0  0  0  0  0  0  0  0
    7.6801   -2.7205   -0.0000 C   0  0  0  0  0  0  0  0  0  0  0  0
    2.5981    1.0000   -0.0000 O   0  0  0  0  0  0  0  0  0  0  0  0
    1.7321   -0.5000   -0.0000 C   0  0  0  0  0  0  0  0  0  0  0  0
    8.0868   -3.6341   -0.0000 C   0  0  0  0  0  0  0  0  0  0  0  0
    8.2679   -1.9115   -0.0000 C   0  0  0  0  0  0  0  0  0  0  0  0
    0.8660   -0.0000   -0.0000 O   0  0  0  0  0  0  0  0  0  0  0  0
    9.0813   -3.7386   -0.0000 C   0  0  0  0  0  0  0  0  0  0  0  0
    9.2624   -2.0160   -0.0000 C   0  0  0  0  0  0  0  0  0  0  0  0
    0.0000   -0.5000   -0.0000 C   0  0  0  0  0  0  0  0  0  0  0  0
    9.6691   -2.9296   -0.0000 C   0  0  0  0  0  0  0  0  0  0  0  0
   -0.8660    0.0000   -0.0000 C   0  0  0  0  0  0  0  0  0  0  0  0
   -0.0000   -1.5000   -0.0000 C   0  0  0  0  0  0  0  0  0  0  0  0
   10.6637   -3.0341   -0.0000 Br  0  0  0  0  0  0  0  0  0  0  0  0
   -1.7321   -0.5000   -0.0000 C   0  0  0  0  0  0  0  0  0  0  0  0
   -0.8660   -2.0000   -0.0000 C   0  0  0  0  0  0  0  0  0  0  0  0
   -2.5981    0.0000   -0.0000 O   0  0  0  0  0  0  0  0  0  0  0  0
   -1.7321   -1.5000   -0.0000 C   0  0  0  0  0  0  0  0  0  0  0  0
   -3.4641   -0.5000   -0.0000 C   0  0  0  0  0  0  0  0  0  0  0  0
   -2.5981   -2.0000   -0.0000 C   0  0  0  0  0  0  0  0  0  0  0  0
   -4.3301    0.0000   -0.0000 O   0  0  0  0  0  0  0  0  0  0  0  0
   -3.4641   -1.5000   -0.0000 C   0  0  0  0  0  0  0  0  0  0  0  0
  1  2  1  0  0  0  0
  2  3  2  0  0  0  0
  2  4  1  0  0  0  0
  3  5  1  0  0  0  0
  4  6  2  0  0  0  0
  5  7  1  0  0  0  0
  5  8  2  0  0  0  0
  7  9  1  0  0  0  0
  7 10  2  0  0  0  0
  8 11  1  0  0  0  0
  9 12  2  3  0  0  0
 10 13  1  0  0  0  0
 11 14  1  0  0  0  0
 12 15  1  0  0  0  0
 14 16  1  0  0  0  0
 15 17  2  0  0  0  0
 15 18  1  0  0  0  0
 16 19  2  0  0  0  0
 16 20  1  0  0  0  0
 18 21  1  0  0  0  0
 19 22  1  0  0  0  0
 20 23  2  0  0  0  0
 21 24  1  0  0  0  0
 22 25  2  0  0  0  0
 24 26  2  0  0  0  0
 24 27  1  0  0  0  0
 25 28  1  0  0  0  0
 26 29  1  0  0  0  0
 27 30  2  0  0  0  0
 29 31  1  0  0  0  0
 29 32  2  0  0  0  0
 31 33  1  0  0  0  0
 32 34  1  0  0  0  0
 33 35  2  0  0  0  0
 33 36  1  0  0  0  0
  6  8  1  0  0  0  0
 10 11  1  0  0  0  0
 23 25  1  0  0  0  0
 30 32  1  0  0  0  0
 34 36  2  0  0  0  0
M  END
>  <S/N>
305

>  <Compound ID>
C_320

>  <PubChem CID>
137179343

>  <Isomeric SMILES>
C1=CC(=CC2=C1C=CC(=O)O2)OCC(=O)N=NC3=C(N(C4=C3C=C(C=C4)Br)CC5=CC=C(C=C5)Br)O

>  <IC50 (�M)>
2.5

>  <pIC50>
5.6

$$$$
C_321
Actelion Java MolfileCreator 1.0

 24 26  0  0  0  0  0  0  0  0999 V2000
    5.1962   -1.5000   -0.0000 O   0  0  0  0  0  0  0  0  0  0  0  0
    5.1962   -0.5000   -0.0000 C   0  0  0  0  0  0  0  0  0  0  0  0
    6.0622   -0.0000   -0.0000 O   0  0  0  0  0  0  0  0  0  0  0  0
    4.3301   -0.0000   -0.0000 C   0  0  0  0  0  0  0  0  0  0  0  0
    6.0622    1.0000   -0.0000 C   0  0  0  0  0  0  0  0  0  0  0  0
    3.4641   -0.5000   -0.0000 C   0  0  0  0  0  0  0  0  0  0  0  0
    4.3301    1.0000   -0.0000 C   0  0  0  0  0  0  0  0  0  0  0  0
    5.1962    1.5000   -0.0000 C   0  0  0  0  0  0  0  0  0  0  0  0
    6.9282    1.5000   -0.0000 C   0  0  0  0  0  0  0  0  0  0  0  0
    3.4641   -1.5000   -0.0000 O   0  0  0  0  0  0  0  0  0  0  0  0
    2.5981   -0.0000   -0.0000 N   0  0  0  0  0  0  0  0  0  0  0  0
    5.1962    2.5000   -0.0000 C   0  0  0  0  0  0  0  0  0  0  0  0
    6.9282    2.5000   -0.0000 C   0  0  0  0  0  0  0  0  0  0  0  0
    1.7321   -0.5000   -0.0000 N   0  0  0  0  0  0  0  0  0  0  0  0
    6.0622    3.0000   -0.0000 C   0  0  0  0  0  0  0  0  0  0  0  0
    0.8660   -0.0000   -0.0000 C   0  0  0  0  0  0  0  0  0  0  0  0
    0.0000   -0.5000   -0.0000 C   0  0  0  0  0  0  0  0  0  0  0  0
   -0.8660    0.0000   -0.0000 C   0  0  0  0  0  0  0  0  0  0  0  0
   -0.0000   -1.5000   -0.0000 C   0  0  0  0  0  0  0  0  0  0  0  0
   -0.8660    1.0000   -0.0000 O   0  0  0  0  0  0  0  0  0  0  0  0
   -1.7321   -0.5000   -0.0000 C   0  0  0  0  0  0  0  0  0  0  0  0
   -0.8660   -2.0000   -0.0000 C   0  0  0  0  0  0  0  0  0  0  0  0
   -1.7321   -1.5000   -0.0000 C   0  0  0  0  0  0  0  0  0  0  0  0
   -2.5981   -2.0000   -0.0000 O   0  0  0  0  0  0  0  0  0  0  0  0
  1  2  2  0  0  0  0
  2  3  1  0  0  0  0
  2  4  1  0  0  0  0
  3  5  1  0  0  0  0
  4  6  1  0  0  0  0
  4  7  2  0  0  0  0
  5  8  2  0  0  0  0
  5  9  1  0  0  0  0
  6 10  2  0  0  0  0
  6 11  1  0  0  0  0
  8 12  1  0  0  0  0
  9 13  2  0  0  0  0
 11 14  1  0  0  0  0
 12 15  2  0  0  0  0
 14 16  2  0  0  0  0
 16 17  1  0  0  0  0
 17 18  2  0  0  0  0
 17 19  1  0  0  0  0
 18 20  1  0  0  0  0
 18 21  1  0  0  0  0
 19 22  2  0  0  0  0
 21 23  2  0  0  0  0
 23 24  1  0  0  0  0
  7  8  1  0  0  0  0
 13 15  1  0  0  0  0
 22 23  1  0  0  0  0
M  END
>  <S/N>
306

>  <Compound ID>
C_321

>  <PubChem CID>
137242181

>  <Isomeric SMILES>
C1=CC=C2C(=C1)C=C(C(=O)O2)C(=O)N/N=C/C3=C(C=C(C=C3)O)O

>  <IC50 (�M)>
1.1

>  <pIC50>
5.96

$$$$
C_322
Actelion Java MolfileCreator 1.0

 31 35  0  0  0  0  0  0  0  0999 V2000
    2.7221    1.2171   -0.0000 O   0  0  0  0  0  0  0  0  0  0  0  0
    2.5981   -0.0000   -0.0000 C   0  0  0  0  0  0  0  0  0  0  0  0
    3.4641   -0.5000   -0.0000 O   0  0  0  0  0  0  0  0  0  0  0  0
    1.7321   -0.5000   -0.0000 C   0  0  0  0  0  0  0  0  0  0  0  0
    3.4641   -1.5000   -0.0000 C   0  0  0  0  0  0  0  0  0  0  0  0
    1.7321   -1.5000   -0.0000 C   0  0  0  0  0  0  0  0  0  0  0  0
    0.8660   -0.0000   -0.0000 C   0  0  0  0  0  0  0  0  0  0  0  0
    2.5981   -2.0000   -0.0000 C   0  0  0  0  0  0  0  0  0  0  0  0
    4.3301   -2.0000   -0.0000 C   0  0  0  0  0  0  0  0  0  0  0  0
    0.8660   -2.0000   -0.0000 N   0  0  0  0  0  0  0  0  0  0  0  0
    0.8660    1.0000   -0.0000 C   0  0  0  0  0  0  0  0  0  0  0  0
    0.0000   -0.5000   -0.0000 C   0  0  0  0  0  0  0  0  0  0  0  0
    2.5981   -3.0000   -0.0000 C   0  0  0  0  0  0  0  0  0  0  0  0
    4.3301   -3.0000   -0.0000 C   0  0  0  0  0  0  0  0  0  0  0  0
    1.7321    1.5000   -0.0000 C   0  0  0  0  0  0  0  0  0  0  0  0
    0.0000    1.5000   -0.0000 C   0  0  0  0  0  0  0  0  0  0  0  0
   -0.8660    0.0000   -0.0000 C   0  0  0  0  0  0  0  0  0  0  0  0
   -0.0000   -1.5000   -0.0000 C   0  0  0  0  0  0  0  0  0  0  0  0
    3.4641   -3.5000   -0.0000 C   0  0  0  0  0  0  0  0  0  0  0  0
    2.3998    1.0202   -0.0000 O   0  0  0  0  0  0  0  0  0  0  0  0
    1.7321    2.5000   -0.0000 O   0  0  0  0  0  0  0  0  0  0  0  0
   -0.8660    1.0000   -0.0000 N   0  0  0  0  0  0  0  0  0  0  0  0
   -0.0000    2.5000   -0.0000 C   0  0  0  0  0  0  0  0  0  0  0  0
   -1.7321   -0.5000   -0.0000 C   0  0  0  0  0  0  0  0  0  0  0  0
   -0.8660   -2.0000   -0.0000 C   0  0  0  0  0  0  0  0  0  0  0  0
    0.8660    3.0000   -0.0000 C   0  0  0  0  0  0  0  0  0  0  0  0
   -0.8660    3.0000   -0.0000 C   0  0  0  0  0  0  0  0  0  0  0  0
   -1.7321   -1.5000   -0.0000 C   0  0  0  0  0  0  0  0  0  0  0  0
    0.8660    4.0000   -0.0000 C   0  0  0  0  0  0  0  0  0  0  0  0
   -0.8660    4.0000   -0.0000 C   0  0  0  0  0  0  0  0  0  0  0  0
    0.0000    4.5000   -0.0000 C   0  0  0  0  0  0  0  0  0  0  0  0
  1  2  2  0  0  0  0
  2  3  1  0  0  0  0
  2  4  1  0  0  0  0
  3  5  1  0  0  0  0
  4  6  2  0  0  0  0
  4  7  1  0  0  0  0
  5  8  2  0  0  0  0
  5  9  1  0  0  0  0
  6 10  1  0  0  0  0
  7 11  1  0  0  0  0
  7 12  1  0  0  0  0
  8 13  1  0  0  0  0
  9 14  2  0  0  0  0
 11 15  1  0  0  0  0
 11 16  2  0  0  0  0
 12 17  2  0  0  0  0
 12 18  1  0  0  0  0
 13 19  2  0  0  0  0
 15 20  2  0  0  0  0
 15 21  1  0  0  0  0
 16 22  1  0  0  0  0
 16 23  1  0  0  0  0
 17 24  1  0  0  0  0
 18 25  2  0  0  0  0
 21 26  1  0  0  0  0
 23 27  2  0  0  0  0
 24 28  2  0  0  0  0
 26 29  2  0  0  0  0
 27 30  1  0  0  0  0
 29 31  1  0  0  0  0
  6  8  1  0  0  0  0
 14 19  1  0  0  0  0
 23 26  1  0  0  0  0
 25 28  1  0  0  0  0
 30 31  2  0  0  0  0
M  END
>  <S/N>
307

>  <Compound ID>
C_322

>  <PubChem CID>
139231919

>  <Isomeric SMILES>
C1=CC=C(C=C1)C(C2=C(C3=CC=CC=C3OC2=O)N)C4=C(C5=CC=CC=C5OC4=O)N

>  <IC50 (�M)>
20

>  <pIC50>
4.7

$$$$
C_323
Actelion Java MolfileCreator 1.0

 30 32  0  0  1  0  0  0  0  0999 V2000
   11.6914   -0.0000   -0.0000 O   0  0  0  0  0  0  0  0  0  0  0  0
   10.3923   -0.7500   -0.0000 C   0  0  0  0  0  0  0  0  0  0  0  0
    9.0933   -0.0000   -0.0000 C   0  0  0  0  0  0  0  0  0  0  0  0
   10.3923   -2.2500   -0.0000 C   0  0  0  0  0  0  0  0  0  0  0  0
    7.7942   -0.7500   -0.0000 C   0  0  0  0  0  0  0  0  0  0  0  0
   11.1423   -3.5490   -0.0000 O   0  0  0  0  0  0  0  0  0  0  0  0
    9.0933   -3.0000   -0.0000 C   0  0  0  0  0  0  0  0  0  0  0  0
   11.8923   -2.2500   -0.0000 C   0  0  0  0  0  0  0  0  0  0  0  0
    6.4952   -0.0000   -0.0000 C   0  0  0  0  0  0  0  0  0  0  0  0
    7.7942   -2.2500   -0.0000 C   0  0  0  0  0  0  0  0  0  0  0  0
    9.0933   -4.5000   -0.0000 O   0  0  0  0  0  0  0  0  0  0  0  0
    5.1962   -0.7500   -0.0000 C   0  0  0  0  0  0  0  0  0  0  0  0
    6.4952   -3.0000   -0.0000 C   0  0  0  0  0  0  0  0  0  0  0  0
    7.7942   -5.2500   -0.0000 C   0  0  0  0  0  0  0  0  0  0  0  0
    5.1962   -2.2500   -0.0000 O   0  0  0  0  0  0  0  0  0  0  0  0
    3.8971   -0.0000   -0.0000 C   0  0  0  0  0  0  0  0  0  0  0  0
    6.4952   -4.5000   -0.0000 O   0  0  0  0  0  0  0  0  0  0  0  0
    7.7942   -6.7500   -0.0000 C   0  0  0  0  0  0  0  0  0  0  0  0
    2.5981   -0.7500   -0.0000 C   0  0  0  0  0  0  0  0  0  0  0  0
    6.4952   -7.5000   -0.0000 C   0  0  0  0  0  0  0  0  0  0  0  0
    9.0933   -7.5000   -0.0000 C   0  0  0  0  0  0  0  0  0  0  0  0
    1.2990   -0.0000   -0.0000 C   0  0  0  0  0  0  0  0  0  0  0  0
    5.1962   -6.7500   -0.0000 O   0  0  0  0  0  0  0  0  0  0  0  0
    6.4952   -9.0000   -0.0000 C   0  0  0  0  0  0  0  0  0  0  0  0
    9.0933   -9.0000   -0.0000 C   0  0  0  0  0  0  0  0  0  0  0  0
   10.3923   -6.7500   -0.0000 C   0  0  0  0  0  0  0  0  0  0  0  0
    1.2990    1.5000   -0.0000 O   0  0  0  0  0  0  0  0  0  0  0  0
    0.0000   -0.7500   -0.0000 C   0  0  0  0  0  0  0  0  0  0  0  0
    7.7942   -9.7500   -0.0000 C   0  0  0  0  0  0  0  0  0  0  0  0
    7.7942  -11.2500   -0.0000 O   0  0  0  0  0  0  0  0  0  0  0  0
  1  2  2  0  0  0  0
  2  3  1  0  0  0  0
  2  4  1  0  0  0  0
  3  5  2  0  0  0  0
  4  6  1  1  0  0  0
  4  7  1  0  0  0  0
  4  8  1  0  0  0  0
  5  9  1  0  0  0  0
  5 10  1  0  0  0  0
  7 11  1  1  0  0  0
  9 12  2  0  0  0  0
 10 13  1  6  0  0  0
 11 14  1  0  0  0  0
 12 15  1  0  0  0  0
 12 16  1  0  0  0  0
 14 17  2  0  0  0  0
 14 18  1  0  0  0  0
 16 19  2  0  0  0  0
 18 20  2  0  0  0  0
 18 21  1  0  0  0  0
 19 22  1  0  0  0  0
 20 23  1  0  0  0  0
 20 24  1  0  0  0  0
 21 25  2  0  0  0  0
 21 26  1  0  0  0  0
 22 27  1  6  0  0  0
 22 28  1  0  0  0  0
 24 29  2  0  0  0  0
 29 30  1  0  0  0  0
  7 10  1  0  0  0  0
 13 15  1  0  0  0  0
 25 29  1  0  0  0  0
M  END
>  <S/N>
308

>  <Compound ID>
C_323

>  <PubChem CID>
139589754

>  <Isomeric SMILES>
CC1=CC(=CC(=C1C(=O)O[C@H]2[C@@H]3COC(=CC3=CC(=O)[C@@]2(C)O)/C=C/[C@H](C)O)O)O

>  <IC50 (�M)>
78.6

>  <pIC50>
4.1

$$$$
C_324
Actelion Java MolfileCreator 1.0

 29 31  0  0  1  0  0  0  0  0999 V2000
   11.6914   -0.0000   -0.0000 O   0  0  0  0  0  0  0  0  0  0  0  0
   10.3923   -0.7500   -0.0000 C   0  0  0  0  0  0  0  0  0  0  0  0
    9.0933   -0.0000   -0.0000 C   0  0  0  0  0  0  0  0  0  0  0  0
   10.3923   -2.2500   -0.0000 C   0  0  0  0  0  0  0  0  0  0  0  0
    7.7942   -0.7500   -0.0000 C   0  0  0  0  0  0  0  0  0  0  0  0
   11.1423   -3.5490   -0.0000 O   0  0  0  0  0  0  0  0  0  0  0  0
    9.0933   -3.0000   -0.0000 C   0  0  0  0  0  0  0  0  0  0  0  0
   11.8923   -2.2500   -0.0000 C   0  0  0  0  0  0  0  0  0  0  0  0
    6.4952   -0.0000   -0.0000 C   0  0  0  0  0  0  0  0  0  0  0  0
    7.7942   -2.2500   -0.0000 C   0  0  0  0  0  0  0  0  0  0  0  0
    9.0933   -4.5000   -0.0000 O   0  0  0  0  0  0  0  0  0  0  0  0
    5.1962   -0.7500   -0.0000 C   0  0  0  0  0  0  0  0  0  0  0  0
    6.4952   -3.0000   -0.0000 C   0  0  0  0  0  0  0  0  0  0  0  0
    7.7942   -5.2500   -0.0000 C   0  0  0  0  0  0  0  0  0  0  0  0
    5.1962   -2.2500   -0.0000 O   0  0  0  0  0  0  0  0  0  0  0  0
    3.8971   -0.0000   -0.0000 C   0  0  0  0  0  0  0  0  0  0  0  0
    6.4952   -4.5000   -0.0000 O   0  0  0  0  0  0  0  0  0  0  0  0
    7.7942   -6.7500   -0.0000 C   0  0  0  0  0  0  0  0  0  0  0  0
    2.5981   -0.7500   -0.0000 C   0  0  0  0  0  0  0  0  0  0  0  0
    6.4952   -7.5000   -0.0000 C   0  0  0  0  0  0  0  0  0  0  0  0
    9.0933   -7.5000   -0.0000 C   0  0  0  0  0  0  0  0  0  0  0  0
    1.2990   -0.0000   -0.0000 C   0  0  0  0  0  0  0  0  0  0  0  0
    5.1962   -6.7500   -0.0000 O   0  0  0  0  0  0  0  0  0  0  0  0
    6.4952   -9.0000   -0.0000 C   0  0  0  0  0  0  0  0  0  0  0  0
    9.0933   -9.0000   -0.0000 C   0  0  0  0  0  0  0  0  0  0  0  0
   10.3923   -6.7500   -0.0000 C   0  0  0  0  0  0  0  0  0  0  0  0
    0.0000   -0.7500   -0.0000 O   0  0  0  0  0  0  0  0  0  0  0  0
    7.7942   -9.7500   -0.0000 C   0  0  0  0  0  0  0  0  0  0  0  0
    7.7942  -11.2500   -0.0000 O   0  0  0  0  0  0  0  0  0  0  0  0
  1  2  2  0  0  0  0
  2  3  1  0  0  0  0
  2  4  1  0  0  0  0
  3  5  2  0  0  0  0
  4  6  1  1  0  0  0
  4  7  1  0  0  0  0
  4  8  1  0  0  0  0
  5  9  1  0  0  0  0
  5 10  1  0  0  0  0
  7 11  1  1  0  0  0
  9 12  2  0  0  0  0
 10 13  1  6  0  0  0
 11 14  1  0  0  0  0
 12 15  1  0  0  0  0
 12 16  1  0  0  0  0
 14 17  2  0  0  0  0
 14 18  1  0  0  0  0
 16 19  2  0  0  0  0
 18 20  2  0  0  0  0
 18 21  1  0  0  0  0
 19 22  1  0  0  0  0
 20 23  1  0  0  0  0
 20 24  1  0  0  0  0
 21 25  2  0  0  0  0
 21 26  1  0  0  0  0
 22 27  2  0  0  0  0
 24 28  2  0  0  0  0
 28 29  1  0  0  0  0
  7 10  1  0  0  0  0
 13 15  1  0  0  0  0
 25 28  1  0  0  0  0
M  END
>  <S/N>
309

>  <Compound ID>
C_324

>  <PubChem CID>
139589755

>  <Isomeric SMILES>
CC1=CC(=CC(=C1C(=O)O[C@H]2[C@@H]3COC(=CC3=CC(=O)[C@@]2(C)O)/C=C/C=O)O)O

>  <IC50 (�M)>
22.9

>  <pIC50>
4.64

$$$$
C_325
Actelion Java MolfileCreator 1.0

 34 38  0  0  0  0  0  0  0  0999 V2000
    2.6197   -0.7563   -0.0000 O   0  0  0  0  0  0  0  0  0  0  0  0
    1.3099   -0.0000   -0.0000 N   0  0  0  0  0  0  0  0  0  0  0  0
    1.3099    1.5125   -0.0000 O   0  0  0  0  0  0  0  0  0  0  0  0
    0.0000   -0.7563   -0.0000 C   0  0  0  0  0  0  0  0  0  0  0  0
   -1.3099    0.0000   -0.0000 C   0  0  0  0  0  0  0  0  0  0  0  0
   -0.0000   -2.2688   -0.0000 C   0  0  0  0  0  0  0  0  0  0  0  0
   -2.6197   -0.7563   -0.0000 C   0  0  0  0  0  0  0  0  0  0  0  0
   -1.3099   -3.0250   -0.0000 C   0  0  0  0  0  0  0  0  0  0  0  0
   -2.6197   -2.2688   -0.0000 C   0  0  0  0  0  0  0  0  0  0  0  0
   -3.9296   -3.0250   -0.0000 C   0  0  0  0  0  0  0  0  0  0  0  0
   -5.2395   -2.2688   -0.0000 C   0  0  0  0  0  0  0  0  0  0  0  0
   -3.9296   -4.5375   -0.0000 C   0  0  0  0  0  0  0  0  0  0  0  0
   -5.2395   -0.7563   -0.0000 C   0  0  0  0  0  0  0  0  0  0  0  0
   -6.5493   -3.0250   -0.0000 C   0  0  0  0  0  0  0  0  0  0  0  0
   -2.6197   -5.2938   -0.0000 C   0  0  0  0  0  0  0  0  0  0  0  0
   -5.2395   -5.2938   -0.0000 C   0  0  0  0  0  0  0  0  0  0  0  0
   -3.9296   -0.0000   -0.0000 O   0  0  0  0  0  0  0  0  0  0  0  0
   -6.5493    0.0000   -0.0000 O   0  0  0  0  0  0  0  0  0  0  0  0
   -6.5795   -4.1606   -0.0000 N   0  0  0  0  0  0  0  0  0  0  0  0
   -7.8592   -2.2688   -0.0000 C   0  0  0  0  0  0  0  0  0  0  0  0
   -1.3099   -4.5375   -0.0000 O   0  0  0  0  0  0  0  0  0  0  0  0
   -2.6197   -6.8063   -0.0000 O   0  0  0  0  0  0  0  0  0  0  0  0
   -6.5343   -4.7260   -0.0000 N   0  0  0  0  0  0  0  0  0  0  0  0
   -5.2395   -6.8063   -0.0000 C   0  0  0  0  0  0  0  0  0  0  0  0
   -7.8592   -0.7563   -0.0000 C   0  0  0  0  0  0  0  0  0  0  0  0
   -9.1691   -3.0250   -0.0000 C   0  0  0  0  0  0  0  0  0  0  0  0
   -3.9296   -7.5625   -0.0000 C   0  0  0  0  0  0  0  0  0  0  0  0
   -6.5493   -7.5625   -0.0000 C   0  0  0  0  0  0  0  0  0  0  0  0
   -9.1691   -0.0000   -0.0000 C   0  0  0  0  0  0  0  0  0  0  0  0
  -10.4789   -2.2688   -0.0000 C   0  0  0  0  0  0  0  0  0  0  0  0
   -3.9296   -9.0750   -0.0000 C   0  0  0  0  0  0  0  0  0  0  0  0
   -6.5493   -9.0750   -0.0000 C   0  0  0  0  0  0  0  0  0  0  0  0
  -10.4789   -0.7563   -0.0000 C   0  0  0  0  0  0  0  0  0  0  0  0
   -5.2395   -9.8313   -0.0000 C   0  0  0  0  0  0  0  0  0  0  0  0
  1  2  2  0  0  0  0
  2  3  1  0  0  0  0
  2  4  1  0  0  0  0
  4  5  2  0  0  0  0
  4  6  1  0  0  0  0
  5  7  1  0  0  0  0
  6  8  2  0  0  0  0
  7  9  2  0  0  0  0
  9 10  1  0  0  0  0
 10 11  1  0  0  0  0
 10 12  1  0  0  0  0
 11 13  1  0  0  0  0
 11 14  2  0  0  0  0
 12 15  1  0  0  0  0
 12 16  2  0  0  0  0
 13 17  2  0  0  0  0
 13 18  1  0  0  0  0
 14 19  1  0  0  0  0
 14 20  1  0  0  0  0
 15 21  2  0  0  0  0
 15 22  1  0  0  0  0
 16 23  1  0  0  0  0
 16 24  1  0  0  0  0
 18 25  1  0  0  0  0
 20 26  2  0  0  0  0
 22 27  1  0  0  0  0
 24 28  2  0  0  0  0
 25 29  2  0  0  0  0
 26 30  1  0  0  0  0
 27 31  2  0  0  0  0
 28 32  1  0  0  0  0
 29 33  1  0  0  0  0
 31 34  1  0  0  0  0
  8  9  1  0  0  0  0
 20 25  1  0  0  0  0
 24 27  1  0  0  0  0
 30 33  2  0  0  0  0
 32 34  2  0  0  0  0
M  CHG  2   2   1   3  -1
M  END
>  <S/N>
310

>  <Compound ID>
C_325

>  <PubChem CID>
141348410

>  <Isomeric SMILES>
C1=CC=C2C(=C1)C(=C(C(=O)O2)C(C3=CC=C(C=C3)[N+](=O)[O-])C4=C(C5=CC=CC=C5OC4=O)N)N

>  <IC50 (�M)>
20

>  <pIC50>
4.7

$$$$
C_326
Actelion Java MolfileCreator 1.0

 32 36  0  0  0  0  0  0  0  0999 V2000
    2.7221    1.2171   -0.0000 O   0  0  0  0  0  0  0  0  0  0  0  0
    2.5981   -0.0000   -0.0000 C   0  0  0  0  0  0  0  0  0  0  0  0
    3.4641   -0.5000   -0.0000 O   0  0  0  0  0  0  0  0  0  0  0  0
    1.7321   -0.5000   -0.0000 C   0  0  0  0  0  0  0  0  0  0  0  0
    3.4641   -1.5000   -0.0000 C   0  0  0  0  0  0  0  0  0  0  0  0
    1.7321   -1.5000   -0.0000 C   0  0  0  0  0  0  0  0  0  0  0  0
    0.8660   -0.0000   -0.0000 C   0  0  0  0  0  0  0  0  0  0  0  0
    2.5981   -2.0000   -0.0000 C   0  0  0  0  0  0  0  0  0  0  0  0
    4.3301   -2.0000   -0.0000 C   0  0  0  0  0  0  0  0  0  0  0  0
    0.8660   -2.0000   -0.0000 N   0  0  0  0  0  0  0  0  0  0  0  0
    0.8660    1.0000   -0.0000 C   0  0  0  0  0  0  0  0  0  0  0  0
    0.0000   -0.5000   -0.0000 C   0  0  0  0  0  0  0  0  0  0  0  0
    2.5981   -3.0000   -0.0000 C   0  0  0  0  0  0  0  0  0  0  0  0
    4.3301   -3.0000   -0.0000 C   0  0  0  0  0  0  0  0  0  0  0  0
    1.7321    1.5000   -0.0000 C   0  0  0  0  0  0  0  0  0  0  0  0
    0.0000    1.5000   -0.0000 C   0  0  0  0  0  0  0  0  0  0  0  0
   -0.8660    0.0000   -0.0000 C   0  0  0  0  0  0  0  0  0  0  0  0
   -0.0000   -1.5000   -0.0000 C   0  0  0  0  0  0  0  0  0  0  0  0
    3.4641   -3.5000   -0.0000 C   0  0  0  0  0  0  0  0  0  0  0  0
    2.3998    1.0202   -0.0000 O   0  0  0  0  0  0  0  0  0  0  0  0
    1.7321    2.5000   -0.0000 O   0  0  0  0  0  0  0  0  0  0  0  0
   -0.8660    1.0000   -0.0000 N   0  0  0  0  0  0  0  0  0  0  0  0
   -0.0000    2.5000   -0.0000 C   0  0  0  0  0  0  0  0  0  0  0  0
   -1.7321   -0.5000   -0.0000 C   0  0  0  0  0  0  0  0  0  0  0  0
   -0.8660   -2.0000   -0.0000 C   0  0  0  0  0  0  0  0  0  0  0  0
    0.8660    3.0000   -0.0000 C   0  0  0  0  0  0  0  0  0  0  0  0
   -0.8660    3.0000   -0.0000 C   0  0  0  0  0  0  0  0  0  0  0  0
   -1.7321   -1.5000   -0.0000 C   0  0  0  0  0  0  0  0  0  0  0  0
    0.8660    4.0000   -0.0000 C   0  0  0  0  0  0  0  0  0  0  0  0
   -0.8660    4.0000   -0.0000 C   0  0  0  0  0  0  0  0  0  0  0  0
   -2.5981   -2.0000   -0.0000 C   0  0  0  0  0  0  0  0  0  0  0  0
    0.0000    4.5000   -0.0000 C   0  0  0  0  0  0  0  0  0  0  0  0
  1  2  2  0  0  0  0
  2  3  1  0  0  0  0
  2  4  1  0  0  0  0
  3  5  1  0  0  0  0
  4  6  2  0  0  0  0
  4  7  1  0  0  0  0
  5  8  2  0  0  0  0
  5  9  1  0  0  0  0
  6 10  1  0  0  0  0
  7 11  1  0  0  0  0
  7 12  1  0  0  0  0
  8 13  1  0  0  0  0
  9 14  2  0  0  0  0
 11 15  1  0  0  0  0
 11 16  2  0  0  0  0
 12 17  2  0  0  0  0
 12 18  1  0  0  0  0
 13 19  2  0  0  0  0
 15 20  2  0  0  0  0
 15 21  1  0  0  0  0
 16 22  1  0  0  0  0
 16 23  1  0  0  0  0
 17 24  1  0  0  0  0
 18 25  2  0  0  0  0
 21 26  1  0  0  0  0
 23 27  2  0  0  0  0
 24 28  2  0  0  0  0
 26 29  2  0  0  0  0
 27 30  1  0  0  0  0
 28 31  1  0  0  0  0
 29 32  1  0  0  0  0
  6  8  1  0  0  0  0
 14 19  1  0  0  0  0
 23 26  1  0  0  0  0
 25 28  1  0  0  0  0
 30 32  2  0  0  0  0
M  END
>  <S/N>
311

>  <Compound ID>
C_326

>  <PubChem CID>
141348411

>  <Isomeric SMILES>
CC1=CC=C(C=C1)C(C2=C(C3=CC=CC=C3OC2=O)N)C4=C(C5=CC=CC=C5OC4=O)N

>  <IC50 (�M)>
20

>  <pIC50>
4.7

$$$$
C_327
Actelion Java MolfileCreator 1.0

 33 37  0  0  0  0  0  0  0  0999 V2000
    2.7221    1.2171   -0.0000 O   0  0  0  0  0  0  0  0  0  0  0  0
    2.5981   -0.0000   -0.0000 C   0  0  0  0  0  0  0  0  0  0  0  0
    3.4641   -0.5000   -0.0000 O   0  0  0  0  0  0  0  0  0  0  0  0
    1.7321   -0.5000   -0.0000 C   0  0  0  0  0  0  0  0  0  0  0  0
    3.4641   -1.5000   -0.0000 C   0  0  0  0  0  0  0  0  0  0  0  0
    1.7321   -1.5000   -0.0000 C   0  0  0  0  0  0  0  0  0  0  0  0
    0.8660   -0.0000   -0.0000 C   0  0  0  0  0  0  0  0  0  0  0  0
    2.5981   -2.0000   -0.0000 C   0  0  0  0  0  0  0  0  0  0  0  0
    4.3301   -2.0000   -0.0000 C   0  0  0  0  0  0  0  0  0  0  0  0
    0.8660   -2.0000   -0.0000 N   0  0  0  0  0  0  0  0  0  0  0  0
    0.8660    1.0000   -0.0000 C   0  0  0  0  0  0  0  0  0  0  0  0
    0.0000   -0.5000   -0.0000 C   0  0  0  0  0  0  0  0  0  0  0  0
    2.5981   -3.0000   -0.0000 C   0  0  0  0  0  0  0  0  0  0  0  0
    4.3301   -3.0000   -0.0000 C   0  0  0  0  0  0  0  0  0  0  0  0
    1.7321    1.5000   -0.0000 C   0  0  0  0  0  0  0  0  0  0  0  0
    0.0000    1.5000   -0.0000 C   0  0  0  0  0  0  0  0  0  0  0  0
   -0.8660    0.0000   -0.0000 C   0  0  0  0  0  0  0  0  0  0  0  0
   -0.0000   -1.5000   -0.0000 C   0  0  0  0  0  0  0  0  0  0  0  0
    3.4641   -3.5000   -0.0000 C   0  0  0  0  0  0  0  0  0  0  0  0
    2.3998    1.0202   -0.0000 O   0  0  0  0  0  0  0  0  0  0  0  0
    1.7321    2.5000   -0.0000 O   0  0  0  0  0  0  0  0  0  0  0  0
   -0.8660    1.0000   -0.0000 N   0  0  0  0  0  0  0  0  0  0  0  0
   -0.0000    2.5000   -0.0000 C   0  0  0  0  0  0  0  0  0  0  0  0
   -1.7321   -0.5000   -0.0000 C   0  0  0  0  0  0  0  0  0  0  0  0
   -0.8660   -2.0000   -0.0000 C   0  0  0  0  0  0  0  0  0  0  0  0
    0.8660    3.0000   -0.0000 C   0  0  0  0  0  0  0  0  0  0  0  0
   -0.8660    3.0000   -0.0000 C   0  0  0  0  0  0  0  0  0  0  0  0
   -2.5981    0.0000   -0.0000 O   0  0  0  0  0  0  0  0  0  0  0  0
   -1.7321   -1.5000   -0.0000 C   0  0  0  0  0  0  0  0  0  0  0  0
    0.8660    4.0000   -0.0000 C   0  0  0  0  0  0  0  0  0  0  0  0
   -0.8660    4.0000   -0.0000 C   0  0  0  0  0  0  0  0  0  0  0  0
   -3.4641   -0.5000   -0.0000 C   0  0  0  0  0  0  0  0  0  0  0  0
    0.0000    4.5000   -0.0000 C   0  0  0  0  0  0  0  0  0  0  0  0
  1  2  2  0  0  0  0
  2  3  1  0  0  0  0
  2  4  1  0  0  0  0
  3  5  1  0  0  0  0
  4  6  2  0  0  0  0
  4  7  1  0  0  0  0
  5  8  2  0  0  0  0
  5  9  1  0  0  0  0
  6 10  1  0  0  0  0
  7 11  1  0  0  0  0
  7 12  1  0  0  0  0
  8 13  1  0  0  0  0
  9 14  2  0  0  0  0
 11 15  1  0  0  0  0
 11 16  2  0  0  0  0
 12 17  2  0  0  0  0
 12 18  1  0  0  0  0
 13 19  2  0  0  0  0
 15 20  2  0  0  0  0
 15 21  1  0  0  0  0
 16 22  1  0  0  0  0
 16 23  1  0  0  0  0
 17 24  1  0  0  0  0
 18 25  2  0  0  0  0
 21 26  1  0  0  0  0
 23 27  2  0  0  0  0
 24 28  1  0  0  0  0
 24 29  2  0  0  0  0
 26 30  2  0  0  0  0
 27 31  1  0  0  0  0
 28 32  1  0  0  0  0
 30 33  1  0  0  0  0
  6  8  1  0  0  0  0
 14 19  1  0  0  0  0
 23 26  1  0  0  0  0
 25 29  1  0  0  0  0
 31 33  2  0  0  0  0
M  END
>  <S/N>
312

>  <Compound ID>
C_327

>  <PubChem CID>
141734915

>  <Isomeric SMILES>
COC1=CC=CC(=C1)C(C2=C(C3=CC=CC=C3OC2=O)N)C4=C(C5=CC=CC=C5OC4=O)N

>  <IC50 (�M)>
20

>  <pIC50>
4.7

$$$$
C_328
Actelion Java MolfileCreator 1.0

 32 36  0  0  0  0  0  0  0  0999 V2000
    2.7221    1.2171   -0.0000 O   0  0  0  0  0  0  0  0  0  0  0  0
    2.5981   -0.0000   -0.0000 C   0  0  0  0  0  0  0  0  0  0  0  0
    3.4641   -0.5000   -0.0000 O   0  0  0  0  0  0  0  0  0  0  0  0
    1.7321   -0.5000   -0.0000 C   0  0  0  0  0  0  0  0  0  0  0  0
    3.4641   -1.5000   -0.0000 C   0  0  0  0  0  0  0  0  0  0  0  0
    1.7321   -1.5000   -0.0000 C   0  0  0  0  0  0  0  0  0  0  0  0
    0.8660   -0.0000   -0.0000 C   0  0  0  0  0  0  0  0  0  0  0  0
    2.5981   -2.0000   -0.0000 C   0  0  0  0  0  0  0  0  0  0  0  0
    4.3301   -2.0000   -0.0000 C   0  0  0  0  0  0  0  0  0  0  0  0
    0.8660   -2.0000   -0.0000 N   0  0  0  0  0  0  0  0  0  0  0  0
    0.8660    1.0000   -0.0000 C   0  0  0  0  0  0  0  0  0  0  0  0
    0.0000   -0.5000   -0.0000 C   0  0  0  0  0  0  0  0  0  0  0  0
    2.5981   -3.0000   -0.0000 C   0  0  0  0  0  0  0  0  0  0  0  0
    4.3301   -3.0000   -0.0000 C   0  0  0  0  0  0  0  0  0  0  0  0
    1.7321    1.5000   -0.0000 C   0  0  0  0  0  0  0  0  0  0  0  0
    0.0000    1.5000   -0.0000 C   0  0  0  0  0  0  0  0  0  0  0  0
   -0.8660    0.0000   -0.0000 C   0  0  0  0  0  0  0  0  0  0  0  0
   -0.0000   -1.5000   -0.0000 C   0  0  0  0  0  0  0  0  0  0  0  0
    3.4641   -3.5000   -0.0000 C   0  0  0  0  0  0  0  0  0  0  0  0
    2.3998    1.0202   -0.0000 O   0  0  0  0  0  0  0  0  0  0  0  0
    1.7321    2.5000   -0.0000 O   0  0  0  0  0  0  0  0  0  0  0  0
   -0.8660    1.0000   -0.0000 N   0  0  0  0  0  0  0  0  0  0  0  0
   -0.0000    2.5000   -0.0000 C   0  0  0  0  0  0  0  0  0  0  0  0
   -1.7321   -0.5000   -0.0000 C   0  0  0  0  0  0  0  0  0  0  0  0
   -0.8660   -2.0000   -0.0000 C   0  0  0  0  0  0  0  0  0  0  0  0
    0.8660    3.0000   -0.0000 C   0  0  0  0  0  0  0  0  0  0  0  0
   -0.8660    3.0000   -0.0000 C   0  0  0  0  0  0  0  0  0  0  0  0
   -1.7321   -1.5000   -0.0000 C   0  0  0  0  0  0  0  0  0  0  0  0
    0.8660    4.0000   -0.0000 C   0  0  0  0  0  0  0  0  0  0  0  0
   -0.8660    4.0000   -0.0000 C   0  0  0  0  0  0  0  0  0  0  0  0
   -2.5981   -2.0000   -0.0000 O   0  0  0  0  0  0  0  0  0  0  0  0
    0.0000    4.5000   -0.0000 C   0  0  0  0  0  0  0  0  0  0  0  0
  1  2  2  0  0  0  0
  2  3  1  0  0  0  0
  2  4  1  0  0  0  0
  3  5  1  0  0  0  0
  4  6  2  0  0  0  0
  4  7  1  0  0  0  0
  5  8  2  0  0  0  0
  5  9  1  0  0  0  0
  6 10  1  0  0  0  0
  7 11  1  0  0  0  0
  7 12  1  0  0  0  0
  8 13  1  0  0  0  0
  9 14  2  0  0  0  0
 11 15  1  0  0  0  0
 11 16  2  0  0  0  0
 12 17  2  0  0  0  0
 12 18  1  0  0  0  0
 13 19  2  0  0  0  0
 15 20  2  0  0  0  0
 15 21  1  0  0  0  0
 16 22  1  0  0  0  0
 16 23  1  0  0  0  0
 17 24  1  0  0  0  0
 18 25  2  0  0  0  0
 21 26  1  0  0  0  0
 23 27  2  0  0  0  0
 24 28  2  0  0  0  0
 26 29  2  0  0  0  0
 27 30  1  0  0  0  0
 28 31  1  0  0  0  0
 29 32  1  0  0  0  0
  6  8  1  0  0  0  0
 14 19  1  0  0  0  0
 23 26  1  0  0  0  0
 25 28  1  0  0  0  0
 30 32  2  0  0  0  0
M  END
>  <S/N>
313

>  <Compound ID>
C_328

>  <PubChem CID>
141734918

>  <Isomeric SMILES>
C1=CC=C2C(=C1)C(=C(C(=O)O2)C(C3=CC=C(C=C3)O)C4=C(C5=CC=CC=C5OC4=O)N)N

>  <IC50 (�M)>
20

>  <pIC50>
4.7

$$$$
C_330
Actelion Java MolfileCreator 1.0

 18 18  0  0  1  0  0  0  0  0999 V2000
    1.7321   -4.5000   -0.0000 O   0  0  0  0  0  0  0  0  0  0  0  0
    1.7321   -3.5000   -0.0000 C   0  0  0  0  0  0  0  0  0  0  0  0
    2.5981   -5.0000   -0.0000 C   0  0  0  0  0  0  0  0  0  0  0  0
    2.5981   -3.0000   -0.0000 C   0  0  0  0  0  0  0  0  0  0  0  0
    0.8660   -3.0000   -0.0000 C   0  0  0  0  0  0  0  0  0  0  0  0
    3.4641   -3.5000   -0.0000 O   0  0  0  0  0  0  0  0  0  0  0  0
    2.5981   -2.0000   -0.0000 C   0  0  0  0  0  0  0  0  0  0  0  0
    0.8660   -2.0000   -0.0000 C   0  0  0  0  0  0  0  0  0  0  0  0
    4.3301   -3.0000   -0.0000 C   0  0  0  0  0  0  0  0  0  0  0  0
    1.7321   -1.5000   -0.0000 C   0  0  0  0  0  0  0  0  0  0  0  0
    0.0000   -1.5000   -0.0000 O   0  0  0  0  0  0  0  0  0  0  0  0
    1.7321   -0.5000   -0.0000 C   0  0  0  0  0  0  0  0  0  0  0  0
   -0.8660   -2.0000   -0.0000 C   0  0  0  0  0  0  0  0  0  0  0  0
    2.5981   -0.0000   -0.0000 O   0  0  0  0  0  0  0  0  0  0  0  0
    0.8660   -0.0000   -0.0000 C   0  0  0  0  0  0  0  0  0  0  0  0
    3.4641   -0.5000   -0.0000 C   0  0  0  0  0  0  0  0  0  0  0  0
    0.8660    1.0000   -0.0000 O   0  0  0  0  0  0  0  0  0  0  0  0
    0.0000   -0.5000   -0.0000 C   0  0  0  0  0  0  0  0  0  0  0  0
  1  2  1  0  0  0  0
  1  3  1  0  0  0  0
  2  4  2  0  0  0  0
  2  5  1  0  0  0  0
  4  6  1  0  0  0  0
  4  7  1  0  0  0  0
  5  8  2  0  0  0  0
  6  9  1  0  0  0  0
  7 10  2  0  0  0  0
  8 11  1  0  0  0  0
 10 12  1  0  0  0  0
 11 13  1  0  0  0  0
 12 14  1  6  0  0  0
 12 15  1  0  0  0  0
 14 16  1  0  0  0  0
 15 17  1  6  0  0  0
 15 18  1  0  0  0  0
  8 10  1  0  0  0  0
M  END
>  <S/N>
314

>  <Compound ID>
C_330

>  <PubChem CID>
145959976

>  <Isomeric SMILES>
C[C@@H]([C@@H](C1=CC(=C(C=C1OC)OC)OC)OC)O

>  <IC50 (�M)>
80.6

>  <pIC50>
4.09

$$$$
C_331
Actelion Java MolfileCreator 1.0

 36 40  0  0  0  0  0  0  0  0999 V2000
    4.3776   -0.0933   -0.0000 S   0  0  0  0  0  0  0  0  0  0  0  0
    3.4641   -0.5000   -0.0000 C   0  0  0  0  0  0  0  0  0  0  0  0
    5.0468   -0.8364   -0.0000 C   0  0  0  0  0  0  0  0  0  0  0  0
    2.5981   -0.0000   -0.0000 N   0  0  0  0  0  0  0  0  0  0  0  0
    3.5686   -1.4945   -0.0000 N   0  0  0  0  0  0  0  0  0  0  0  0
    4.5468   -1.7024   -0.0000 C   0  0  0  0  0  0  0  0  0  0  0  0
    6.0413   -0.7319   -0.0000 C   0  0  0  0  0  0  0  0  0  0  0  0
    2.5981    1.0000   -0.0000 N   0  0  0  0  0  0  0  0  0  0  0  0
    2.8255   -2.1637   -0.0000 C   0  0  0  0  0  0  0  0  0  0  0  0
    4.9535   -2.6160   -0.0000 O   0  0  0  0  0  0  0  0  0  0  0  0
    6.4480    0.1817   -0.0000 C   0  0  0  0  0  0  0  0  0  0  0  0
    1.7321    1.5000   -0.0000 C   0  0  0  0  0  0  0  0  0  0  0  0
    1.8744   -1.8546   -0.0000 C   0  0  0  0  0  0  0  0  0  0  0  0
    3.0334   -3.1418   -0.0000 C   0  0  0  0  0  0  0  0  0  0  0  0
    7.4426    0.2862   -0.0000 C   0  0  0  0  0  0  0  0  0  0  0  0
    5.8603    0.9907   -0.0000 C   0  0  0  0  0  0  0  0  0  0  0  0
    0.8660    1.0000   -0.0000 O   0  0  0  0  0  0  0  0  0  0  0  0
    1.7321    2.5000   -0.0000 C   0  0  0  0  0  0  0  0  0  0  0  0
    1.1313   -2.5238   -0.0000 C   0  0  0  0  0  0  0  0  0  0  0  0
    2.2903   -3.8109   -0.0000 C   0  0  0  0  0  0  0  0  0  0  0  0
    7.8493    1.1997   -0.0000 C   0  0  0  0  0  0  0  0  0  0  0  0
    6.2670    1.9042   -0.0000 C   0  0  0  0  0  0  0  0  0  0  0  0
    0.8660    3.0000   -0.0000 C   0  0  0  0  0  0  0  0  0  0  0  0
    2.5981    3.0000   -0.0000 C   0  0  0  0  0  0  0  0  0  0  0  0
    1.3392   -3.5019   -0.0000 C   0  0  0  0  0  0  0  0  0  0  0  0
    7.2615    2.0088   -0.0000 C   0  0  0  0  0  0  0  0  0  0  0  0
   -0.0000    2.5000   -0.0000 O   0  0  0  0  0  0  0  0  0  0  0  0
    0.8660    4.0000   -0.0000 O   0  0  0  0  0  0  0  0  0  0  0  0
    2.5981    4.0000   -0.0000 C   0  0  0  0  0  0  0  0  0  0  0  0
    0.5961   -4.1710   -0.0000 C   0  0  0  0  0  0  0  0  0  0  0  0
    7.6682    2.9223   -0.0000 F   0  0  0  0  0  0  0  0  0  0  0  0
    1.7321    4.5000   -0.0000 C   0  0  0  0  0  0  0  0  0  0  0  0
    3.4641    4.5000   -0.0000 C   0  0  0  0  0  0  0  0  0  0  0  0
    1.7321    5.5000   -0.0000 C   0  0  0  0  0  0  0  0  0  0  0  0
    3.4641    5.5000   -0.0000 C   0  0  0  0  0  0  0  0  0  0  0  0
    2.5981    6.0000   -0.0000 C   0  0  0  0  0  0  0  0  0  0  0  0
  1  2  1  0  0  0  0
  1  3  1  0  0  0  0
  2  4  2  0  0  0  0
  2  5  1  0  0  0  0
  3  6  1  0  0  0  0
  3  7  2  0  0  0  0
  4  8  1  0  0  0  0
  5  9  1  0  0  0  0
  6 10  2  0  0  0  0
  7 11  1  0  0  0  0
  8 12  1  0  0  0  0
  9 13  2  0  0  0  0
  9 14  1  0  0  0  0
 11 15  2  0  0  0  0
 11 16  1  0  0  0  0
 12 17  2  0  0  0  0
 12 18  1  0  0  0  0
 13 19  1  0  0  0  0
 14 20  2  0  0  0  0
 15 21  1  0  0  0  0
 16 22  2  0  0  0  0
 18 23  1  0  0  0  0
 18 24  2  0  0  0  0
 19 25  2  0  0  0  0
 21 26  2  0  0  0  0
 23 27  2  0  0  0  0
 23 28  1  0  0  0  0
 24 29  1  0  0  0  0
 25 30  1  0  0  0  0
 26 31  1  0  0  0  0
 28 32  1  0  0  0  0
 29 33  2  0  0  0  0
 32 34  2  0  0  0  0
 33 35  1  0  0  0  0
 34 36  1  0  0  0  0
  5  6  1  0  0  0  0
 20 25  1  0  0  0  0
 22 26  1  0  0  0  0
 29 32  1  0  0  0  0
 35 36  2  0  0  0  0
M  END
>  <S/N>
315

>  <Compound ID>
C_331

>  <PubChem CID>
145963604

>  <Isomeric SMILES>
CC1=CC=C(C=C1)N\2C(=O)/C(=C/C3=CC=C(C=C3)F)/S/C2=N\NC(=O)C4=CC5=CC=CC=C5OC4=O

>  <IC50 (�M)>
0.09

>  <pIC50>
7.05

$$$$
C_332
Actelion Java MolfileCreator 1.0

 31 33  0  0  0  0  0  0  0  0999 V2000
    2.5981   -0.0000   -0.0000 O   0  0  0  0  0  0  0  0  0  0  0  0
    3.4641   -0.5000   -0.0000 C   0  0  0  0  0  0  0  0  0  0  0  0
    1.7321   -0.5000   -0.0000 C   0  0  0  0  0  0  0  0  0  0  0  0
    3.4641   -1.5000   -0.0000 C   0  0  0  0  0  0  0  0  0  0  0  0
    4.3301   -0.0000   -0.0000 C   0  0  0  0  0  0  0  0  0  0  0  0
    0.8660   -0.0000   -0.0000 C   0  0  0  0  0  0  0  0  0  0  0  0
    2.5981   -2.0000   -0.0000 O   0  0  0  0  0  0  0  0  0  0  0  0
    4.3301   -2.0000   -0.0000 C   0  0  0  0  0  0  0  0  0  0  0  0
    5.1962   -0.5000   -0.0000 C   0  0  0  0  0  0  0  0  0  0  0  0
    4.3301    1.0000   -0.0000 C   0  0  0  0  0  0  0  0  0  0  0  0
    0.0000   -0.5000   -0.0000 C   0  0  0  0  0  0  0  0  0  0  0  0
    2.5981   -3.0000   -0.0000 C   0  0  0  0  0  0  0  0  0  0  0  0
    4.3301   -3.0000   -0.0000 C   0  0  0  0  0  0  0  0  0  0  0  0
    5.1962   -1.5000   -0.0000 C   0  0  0  0  0  0  0  0  0  0  0  0
    6.0622   -0.0000   -0.0000 O   0  0  0  0  0  0  0  0  0  0  0  0
    5.1962    1.5000   -0.0000 C   0  0  0  0  0  0  0  0  0  0  0  0
    3.4641    1.5000   -0.0000 C   0  0  0  0  0  0  0  0  0  0  0  0
    3.4641   -3.5000   -0.0000 C   0  0  0  0  0  0  0  0  0  0  0  0
    5.1962   -3.5000   -0.0000 C   0  0  0  0  0  0  0  0  0  0  0  0
    6.0622    1.0000   -0.0000 C   0  0  0  0  0  0  0  0  0  0  0  0
    5.1962    2.5000   -0.0000 C   0  0  0  0  0  0  0  0  0  0  0  0
    3.4641    2.5000   -0.0000 C   0  0  0  0  0  0  0  0  0  0  0  0
    3.4641   -4.5000   -0.0000 C   0  0  0  0  0  0  0  0  0  0  0  0
    5.1962   -4.5000   -0.0000 C   0  0  0  0  0  0  0  0  0  0  0  0
    4.3301    3.0000   -0.0000 C   0  0  0  0  0  0  0  0  0  0  0  0
    4.3301   -5.0000   -0.0000 C   0  0  0  0  0  0  0  0  0  0  0  0
    4.3301    4.0000   -0.0000 O   0  0  0  0  0  0  0  0  0  0  0  0
    4.3301   -6.0000   -0.0000 O   0  0  0  0  0  0  0  0  0  0  0  0
    3.4641    4.5000   -0.0000 C   0  0  0  0  0  0  0  0  0  0  0  0
    3.4641    5.5000   -0.0000 C   0  0  0  0  0  0  0  0  0  0  0  0
    2.5981    6.0000   -0.0000 C   0  0  0  0  0  0  0  0  0  0  0  0
  1  2  1  0  0  0  0
  1  3  1  0  0  0  0
  2  4  2  0  0  0  0
  2  5  1  0  0  0  0
  3  6  1  0  0  0  0
  4  7  1  0  0  0  0
  4  8  1  0  0  0  0
  5  9  2  0  0  0  0
  5 10  1  0  0  0  0
  6 11  1  0  0  0  0
  7 12  1  0  0  0  0
  8 13  1  0  0  0  0
  8 14  2  0  0  0  0
  9 15  1  0  0  0  0
 10 16  2  0  0  0  0
 10 17  1  0  0  0  0
 13 18  2  0  0  0  0
 13 19  1  0  0  0  0
 15 20  1  0  0  0  0
 16 21  1  0  0  0  0
 17 22  2  0  0  0  0
 18 23  1  0  0  0  0
 19 24  2  0  0  0  0
 21 25  2  0  0  0  0
 23 26  2  0  0  0  0
 25 27  1  0  0  0  0
 26 28  1  0  0  0  0
 27 29  1  0  0  0  0
 29 30  1  0  0  0  0
 30 31  1  0  0  0  0
  9 14  1  0  0  0  0
 22 25  1  0  0  0  0
 24 26  1  0  0  0  0
M  END
>  <S/N>
316

>  <Compound ID>
C_332

>  <PubChem CID>
145963815

>  <Isomeric SMILES>
CCCOC1=CC=C(C=C1)C2=C(C=C(C(=C2OCCC)OC)C3=CC=C(C=C3)O)OC

>  <IC50 (�M)>
10.7

>  <pIC50>
4.97

$$$$
C_333
Actelion Java MolfileCreator 1.0

 32 35  0  0  0  0  0  0  0  0999 V2000
    0.0000    2.2500   -0.0000 O   0  0  0  0  0  0  0  0  0  0  0  0
    1.2990    1.5000   -0.0000 C   0  0  0  0  0  0  0  0  0  0  0  0
    1.2990   -0.0000   -0.0000 O   0  0  0  0  0  0  0  0  0  0  0  0
    2.5981    2.2500   -0.0000 C   0  0  0  0  0  0  0  0  0  0  0  0
    0.0000   -0.7500   -0.0000 C   0  0  0  0  0  0  0  0  0  0  0  0
    3.9684    1.6399   -0.0000 O   0  0  0  0  0  0  0  0  0  0  0  0
    2.7549    3.7418   -0.0000 C   0  0  0  0  0  0  0  0  0  0  0  0
   -1.2990    0.0000   -0.0000 C   0  0  0  0  0  0  0  0  0  0  0  0
   -0.0000   -2.2500   -0.0000 C   0  0  0  0  0  0  0  0  0  0  0  0
    4.9721    2.7546   -0.0000 C   0  0  0  0  0  0  0  0  0  0  0  0
    4.2221    4.0537   -0.0000 C   0  0  0  0  0  0  0  0  0  0  0  0
   -1.2990    1.5000   -0.0000 O   0  0  0  0  0  0  0  0  0  0  0  0
   -2.5981   -0.7500   -0.0000 C   0  0  0  0  0  0  0  0  0  0  0  0
   -1.2990   -3.0000   -0.0000 C   0  0  0  0  0  0  0  0  0  0  0  0
    1.2990   -3.0000   -0.0000 C   0  0  0  0  0  0  0  0  0  0  0  0
   -2.5981    2.2500   -0.0000 C   0  0  0  0  0  0  0  0  0  0  0  0
   -3.8971    0.0000   -0.0000 C   0  0  0  0  0  0  0  0  0  0  0  0
   -2.5981   -2.2500   -0.0000 C   0  0  0  0  0  0  0  0  0  0  0  0
   -1.2990   -4.5000   -0.0000 O   0  0  0  0  0  0  0  0  0  0  0  0
    1.2990   -4.5000   -0.0000 C   0  0  0  0  0  0  0  0  0  0  0  0
    2.5981   -2.2500   -0.0000 C   0  0  0  0  0  0  0  0  0  0  0  0
   -3.8971    1.5000   -0.0000 C   0  0  0  0  0  0  0  0  0  0  0  0
   -5.1962   -0.7500   -0.0000 C   0  0  0  0  0  0  0  0  0  0  0  0
   -0.0000   -5.2500   -0.0000 C   0  0  0  0  0  0  0  0  0  0  0  0
    2.5981   -5.2500   -0.0000 C   0  0  0  0  0  0  0  0  0  0  0  0
    3.8971   -3.0000   -0.0000 C   0  0  0  0  0  0  0  0  0  0  0  0
   -5.1962    2.2500   -0.0000 C   0  0  0  0  0  0  0  0  0  0  0  0
   -6.4952    0.0000   -0.0000 C   0  0  0  0  0  0  0  0  0  0  0  0
    3.8971   -4.5000   -0.0000 C   0  0  0  0  0  0  0  0  0  0  0  0
   -6.4952    1.5000   -0.0000 C   0  0  0  0  0  0  0  0  0  0  0  0
    5.1962   -5.2500   -0.0000 O   0  0  0  0  0  0  0  0  0  0  0  0
   -7.7942    2.2500   -0.0000 O   0  0  0  0  0  0  0  0  0  0  0  0
  1  2  2  0  0  0  0
  2  3  1  0  0  0  0
  2  4  1  0  0  0  0
  3  5  1  0  0  0  0
  4  6  1  0  0  0  0
  4  7  2  0  0  0  0
  5  8  2  0  0  0  0
  5  9  1  0  0  0  0
  6 10  1  0  0  0  0
  7 11  1  0  0  0  0
  8 12  1  0  0  0  0
  8 13  1  0  0  0  0
  9 14  2  0  0  0  0
  9 15  1  0  0  0  0
 12 16  1  0  0  0  0
 13 17  1  0  0  0  0
 13 18  2  0  0  0  0
 14 19  1  0  0  0  0
 15 20  2  0  0  0  0
 15 21  1  0  0  0  0
 17 22  2  0  0  0  0
 17 23  1  0  0  0  0
 19 24  1  0  0  0  0
 20 25  1  0  0  0  0
 21 26  2  0  0  0  0
 22 27  1  0  0  0  0
 23 28  2  0  0  0  0
 25 29  2  0  0  0  0
 27 30  2  0  0  0  0
 29 31  1  0  0  0  0
 30 32  1  0  0  0  0
 10 11  2  0  0  0  0
 14 18  1  0  0  0  0
 26 29  1  0  0  0  0
 28 30  1  0  0  0  0
M  END
>  <S/N>
317

>  <Compound ID>
C_333

>  <PubChem CID>
145963840

>  <Isomeric SMILES>
COC1=C(C(=C(C(=C1)C2=CC=C(C=C2)O)OC)OC(=O)C3=CC=CO3)C4=CC=C(C=C4)O

>  <IC50 (�M)>
35.4

>  <pIC50>
4.45

$$$$
C_334
Actelion Java MolfileCreator 1.0

 26 28  0  0  0  0  0  0  0  0999 V2000
    2.5981    1.0000   -0.0000 Br  0  0  0  0  0  0  0  0  0  0  0  0
    2.5981    0.0000   -0.0000 C   0  0  0  0  0  0  0  0  0  0  0  0
    1.7321   -0.5000   -0.0000 C   0  0  0  0  0  0  0  0  0  0  0  0
    3.4641   -0.5000   -0.0000 C   0  0  0  0  0  0  0  0  0  0  0  0
    0.8660   -0.0000   -0.0000 O   0  0  0  0  0  0  0  0  0  0  0  0
    1.7321   -1.5000   -0.0000 C   0  0  0  0  0  0  0  0  0  0  0  0
    3.4641   -1.5000   -0.0000 C   0  0  0  0  0  0  0  0  0  0  0  0
    4.3301    0.0000   -0.0000 C   0  0  0  0  0  0  0  0  0  0  0  0
    0.0000   -0.5000   -0.0000 C   0  0  0  0  0  0  0  0  0  0  0  0
    2.5981   -2.0000   -0.0000 C   0  0  0  0  0  0  0  0  0  0  0  0
    0.8660   -2.0000   -0.0000 C   0  0  0  0  0  0  0  0  0  0  0  0
    4.3301   -2.0000   -0.0000 O   0  0  0  0  0  0  0  0  0  0  0  0
    5.1962   -0.5000   -0.0000 C   0  0  0  0  0  0  0  0  0  0  0  0
    4.3301    1.0000   -0.0000 C   0  0  0  0  0  0  0  0  0  0  0  0
    2.5981   -3.0000   -0.0000 O   0  0  0  0  0  0  0  0  0  0  0  0
    0.0000   -1.5000   -0.0000 C   0  0  0  0  0  0  0  0  0  0  0  0
    0.8660   -3.0000   -0.0000 C   0  0  0  0  0  0  0  0  0  0  0  0
    5.1962   -1.5000   -0.0000 C   0  0  0  0  0  0  0  0  0  0  0  0
    6.0622    0.0000   -0.0000 C   0  0  0  0  0  0  0  0  0  0  0  0
    5.1962    1.5000   -0.0000 C   0  0  0  0  0  0  0  0  0  0  0  0
   -0.8660   -2.0000   -0.0000 C   0  0  0  0  0  0  0  0  0  0  0  0
    0.0000   -3.5000   -0.0000 C   0  0  0  0  0  0  0  0  0  0  0  0
    6.0622    1.0000   -0.0000 C   0  0  0  0  0  0  0  0  0  0  0  0
   -0.8660   -3.0000   -0.0000 C   0  0  0  0  0  0  0  0  0  0  0  0
    6.9282    1.5000   -0.0000 O   0  0  0  0  0  0  0  0  0  0  0  0
   -1.7321   -3.5000   -0.0000 O   0  0  0  0  0  0  0  0  0  0  0  0
  1  2  1  0  0  0  0
  2  3  2  0  0  0  0
  2  4  1  0  0  0  0
  3  5  1  0  0  0  0
  3  6  1  0  0  0  0
  4  7  2  0  0  0  0
  4  8  1  0  0  0  0
  5  9  1  0  0  0  0
  6 10  2  0  0  0  0
  6 11  1  0  0  0  0
  7 12  1  0  0  0  0
  8 13  2  0  0  0  0
  8 14  1  0  0  0  0
 10 15  1  0  0  0  0
 11 16  2  0  0  0  0
 11 17  1  0  0  0  0
 12 18  1  0  0  0  0
 13 19  1  0  0  0  0
 14 20  2  0  0  0  0
 16 21  1  0  0  0  0
 17 22  2  0  0  0  0
 19 23  2  0  0  0  0
 21 24  2  0  0  0  0
 23 25  1  0  0  0  0
 24 26  1  0  0  0  0
  7 10  1  0  0  0  0
 20 23  1  0  0  0  0
 22 24  1  0  0  0  0
M  END
>  <S/N>
318

>  <Compound ID>
C_334

>  <PubChem CID>
145963896

>  <Isomeric SMILES>
COC1=C(C(=C(C(=C1C2=CC=C(C=C2)O)O)OC)C3=CC=C(C=C3)O)Br

>  <IC50 (�M)>
7.14

>  <pIC50>
5.15

$$$$
C_335
Actelion Java MolfileCreator 1.0

 31 33  0  0  0  0  0  0  0  0999 V2000
    2.5981   -0.0000   -0.0000 O   0  0  0  0  0  0  0  0  0  0  0  0
    3.4641   -0.5000   -0.0000 C   0  0  0  0  0  0  0  0  0  0  0  0
    1.7321   -0.5000   -0.0000 C   0  0  0  0  0  0  0  0  0  0  0  0
    3.4641   -1.5000   -0.0000 C   0  0  0  0  0  0  0  0  0  0  0  0
    4.3301   -0.0000   -0.0000 C   0  0  0  0  0  0  0  0  0  0  0  0
    0.8660   -0.0000   -0.0000 C   0  0  0  0  0  0  0  0  0  0  0  0
    2.5981   -2.0000   -0.0000 O   0  0  0  0  0  0  0  0  0  0  0  0
    4.3301   -2.0000   -0.0000 C   0  0  0  0  0  0  0  0  0  0  0  0
    5.1962   -0.5000   -0.0000 C   0  0  0  0  0  0  0  0  0  0  0  0
    4.3301    1.0000   -0.0000 C   0  0  0  0  0  0  0  0  0  0  0  0
    0.0000   -0.5000   -0.0000 C   0  0  0  0  0  0  0  0  0  0  0  0
    2.5981   -3.0000   -0.0000 C   0  0  0  0  0  0  0  0  0  0  0  0
    4.3301   -3.0000   -0.0000 C   0  0  0  0  0  0  0  0  0  0  0  0
    5.1962   -1.5000   -0.0000 C   0  0  0  0  0  0  0  0  0  0  0  0
    6.0622   -0.0000   -0.0000 O   0  0  0  0  0  0  0  0  0  0  0  0
    5.1962    1.5000   -0.0000 C   0  0  0  0  0  0  0  0  0  0  0  0
    3.4641    1.5000   -0.0000 C   0  0  0  0  0  0  0  0  0  0  0  0
    3.4641   -3.5000   -0.0000 C   0  0  0  0  0  0  0  0  0  0  0  0
    5.1962   -3.5000   -0.0000 C   0  0  0  0  0  0  0  0  0  0  0  0
    6.0622    1.0000   -0.0000 C   0  0  0  0  0  0  0  0  0  0  0  0
    5.1962    2.5000   -0.0000 C   0  0  0  0  0  0  0  0  0  0  0  0
    3.4641    2.5000   -0.0000 C   0  0  0  0  0  0  0  0  0  0  0  0
    3.4641   -4.5000   -0.0000 C   0  0  0  0  0  0  0  0  0  0  0  0
    5.1962   -4.5000   -0.0000 C   0  0  0  0  0  0  0  0  0  0  0  0
    4.3301    3.0000   -0.0000 C   0  0  0  0  0  0  0  0  0  0  0  0
    4.3301   -5.0000   -0.0000 C   0  0  0  0  0  0  0  0  0  0  0  0
    4.3301    4.0000   -0.0000 O   0  0  0  0  0  0  0  0  0  0  0  0
    4.3301   -6.0000   -0.0000 O   0  0  0  0  0  0  0  0  0  0  0  0
    5.1962   -6.5000   -0.0000 C   0  0  0  0  0  0  0  0  0  0  0  0
    5.1962   -7.5000   -0.0000 C   0  0  0  0  0  0  0  0  0  0  0  0
    6.0622   -8.0000   -0.0000 C   0  0  0  0  0  0  0  0  0  0  0  0
  1  2  1  0  0  0  0
  1  3  1  0  0  0  0
  2  4  2  0  0  0  0
  2  5  1  0  0  0  0
  3  6  1  0  0  0  0
  4  7  1  0  0  0  0
  4  8  1  0  0  0  0
  5  9  2  0  0  0  0
  5 10  1  0  0  0  0
  6 11  2  0  0  0  0
  7 12  1  0  0  0  0
  8 13  1  0  0  0  0
  8 14  2  0  0  0  0
  9 15  1  0  0  0  0
 10 16  2  0  0  0  0
 10 17  1  0  0  0  0
 13 18  2  0  0  0  0
 13 19  1  0  0  0  0
 15 20  1  0  0  0  0
 16 21  1  0  0  0  0
 17 22  2  0  0  0  0
 18 23  1  0  0  0  0
 19 24  2  0  0  0  0
 21 25  2  0  0  0  0
 23 26  2  0  0  0  0
 25 27  1  0  0  0  0
 26 28  1  0  0  0  0
 28 29  1  0  0  0  0
 29 30  1  0  0  0  0
 30 31  2  0  0  0  0
  9 14  1  0  0  0  0
 22 25  1  0  0  0  0
 24 26  1  0  0  0  0
M  END
>  <S/N>
319

>  <Compound ID>
C_335

>  <PubChem CID>
145964250

>  <Isomeric SMILES>
COC1=C(C(=C(C(=C1)C2=CC=C(C=C2)OCC=C)OC)OCC=C)C3=CC=C(C=C3)O

>  <IC50 (�M)>
8.77

>  <pIC50>
5.06

$$$$
C_336
Actelion Java MolfileCreator 1.0

 23 24  0  0  0  0  0  0  0  0999 V2000
    2.5981    1.0000   -0.0000 O   0  0  0  0  0  0  0  0  0  0  0  0
    2.5981   -0.0000   -0.0000 C   0  0  0  0  0  0  0  0  0  0  0  0
    3.4641   -0.5000   -0.0000 C   0  0  0  0  0  0  0  0  0  0  0  0
    1.7321   -0.5000   -0.0000 C   0  0  0  0  0  0  0  0  0  0  0  0
    4.3301   -0.0000   -0.0000 C   0  0  0  0  0  0  0  0  0  0  0  0
    0.8660   -0.0000   -0.0000 C   0  0  0  0  0  0  0  0  0  0  0  0
    4.3301    1.0000   -0.0000 O   0  0  0  0  0  0  0  0  0  0  0  0
    5.1962   -0.5000   -0.0000 C   0  0  0  0  0  0  0  0  0  0  0  0
    0.0000   -0.5000   -0.0000 C   0  0  0  0  0  0  0  0  0  0  0  0
    6.0622    0.0000   -0.0000 C   0  0  0  0  0  0  0  0  0  0  0  0
    5.1962   -1.5000   -0.0000 C   0  0  0  0  0  0  0  0  0  0  0  0
   -0.8660    0.0000   -0.0000 C   0  0  0  0  0  0  0  0  0  0  0  0
   -0.0000   -1.5000   -0.0000 C   0  0  0  0  0  0  0  0  0  0  0  0
    6.0622    1.0000   -0.0000 O   0  0  0  0  0  0  0  0  0  0  0  0
    6.9282   -0.5000   -0.0000 C   0  0  0  0  0  0  0  0  0  0  0  0
    6.0622   -2.0000   -0.0000 C   0  0  0  0  0  0  0  0  0  0  0  0
   -0.8660    1.0000   -0.0000 O   0  0  0  0  0  0  0  0  0  0  0  0
   -1.7321   -0.5000   -0.0000 C   0  0  0  0  0  0  0  0  0  0  0  0
   -0.8660   -2.0000   -0.0000 C   0  0  0  0  0  0  0  0  0  0  0  0
    6.9282   -1.5000   -0.0000 C   0  0  0  0  0  0  0  0  0  0  0  0
   -1.7321   -1.5000   -0.0000 C   0  0  0  0  0  0  0  0  0  0  0  0
   -0.8660   -3.0000   -0.0000 O   0  0  0  0  0  0  0  0  0  0  0  0
    7.7942   -2.0000   -0.0000 O   0  0  0  0  0  0  0  0  0  0  0  0
  1  2  2  0  0  0  0
  2  3  1  0  0  0  0
  2  4  1  0  0  0  0
  3  5  2  0  0  0  0
  4  6  2  0  0  0  0
  5  7  1  0  0  0  0
  5  8  1  0  0  0  0
  6  9  1  0  0  0  0
  8 10  2  0  0  0  0
  8 11  1  0  0  0  0
  9 12  2  0  0  0  0
  9 13  1  0  0  0  0
 10 14  1  0  0  0  0
 10 15  1  0  0  0  0
 11 16  2  0  0  0  0
 12 17  1  0  0  0  0
 12 18  1  0  0  0  0
 13 19  2  0  0  0  0
 15 20  2  0  0  0  0
 18 21  2  0  0  0  0
 19 22  1  0  0  0  0
 20 23  1  0  0  0  0
 16 20  1  0  0  0  0
 19 21  1  0  0  0  0
M  END
>  <S/N>
320

>  <Compound ID>
C_336

>  <PubChem CID>
145964468

>  <Isomeric SMILES>
C1=CC(=C(C=C1O)O)/C(=C/C(=O)/C=C/C2=C(C=CC(=C2)O)O)/O

>  <IC50 (�M)>
20

>  <pIC50>
4.7

$$$$
C_337
Actelion Java MolfileCreator 1.0

 27 30  0  0  0  0  0  0  0  0999 V2000
    1.6402   -3.2455   -0.0000 O   0  0  0  0  0  0  0  0  0  0  0  0
    2.7549   -2.2418   -0.0000 C   0  0  0  0  0  0  0  0  0  0  0  0
    4.2221   -2.5537   -0.0000 O   0  0  0  0  0  0  0  0  0  0  0  0
    2.5981   -0.7500   -0.0000 C   0  0  0  0  0  0  0  0  0  0  0  0
    4.9721   -1.2546   -0.0000 C   0  0  0  0  0  0  0  0  0  0  0  0
    3.9684   -0.1399   -0.0000 C   0  0  0  0  0  0  0  0  0  0  0  0
    1.2990   -0.0000   -0.0000 C   0  0  0  0  0  0  0  0  0  0  0  0
    6.4639   -1.0978   -0.0000 O   0  0  0  0  0  0  0  0  0  0  0  0
    4.2803    1.3273   -0.0000 C   0  0  0  0  0  0  0  0  0  0  0  0
    0.0000   -0.7500   -0.0000 C   0  0  0  0  0  0  0  0  0  0  0  0
    5.7069    1.7909   -0.0000 C   0  0  0  0  0  0  0  0  0  0  0  0
    3.1655    2.3310   -0.0000 C   0  0  0  0  0  0  0  0  0  0  0  0
   -1.2990    0.0000   -0.0000 C   0  0  0  0  0  0  0  0  0  0  0  0
   -0.0000   -2.2500   -0.0000 C   0  0  0  0  0  0  0  0  0  0  0  0
    6.0187    3.2581   -0.0000 C   0  0  0  0  0  0  0  0  0  0  0  0
    3.4774    3.7982   -0.0000 C   0  0  0  0  0  0  0  0  0  0  0  0
   -2.5981   -0.7500   -0.0000 C   0  0  0  0  0  0  0  0  0  0  0  0
   -1.2990   -3.0000   -0.0000 C   0  0  0  0  0  0  0  0  0  0  0  0
    4.9040    4.2618   -0.0000 C   0  0  0  0  0  0  0  0  0  0  0  0
   -2.5981   -2.2500   -0.0000 C   0  0  0  0  0  0  0  0  0  0  0  0
   -3.8971    0.0000   -0.0000 C   0  0  0  0  0  0  0  0  0  0  0  0
    5.2159    5.7290   -0.0000 O   0  0  0  0  0  0  0  0  0  0  0  0
   -3.8971   -3.0000   -0.0000 O   0  0  0  0  0  0  0  0  0  0  0  0
   -5.1962   -0.7500   -0.0000 C   0  0  0  0  0  0  0  0  0  0  0  0
   -5.1962   -2.2500   -0.0000 C   0  0  0  0  0  0  0  0  0  0  0  0
   -6.6961   -2.2500   -0.0000 C   0  0  0  0  0  0  0  0  0  0  0  0
   -5.9461   -3.5490   -0.0000 C   0  0  0  0  0  0  0  0  0  0  0  0
  1  2  2  0  0  0  0
  2  3  1  0  0  0  0
  2  4  1  0  0  0  0
  3  5  1  0  0  0  0
  4  6  2  0  0  0  0
  4  7  1  0  0  0  0
  5  8  1  1  0  0  0
  6  9  1  0  0  0  0
  7 10  1  0  0  0  0
  9 11  2  0  0  0  0
  9 12  1  0  0  0  0
 10 13  2  0  0  0  0
 10 14  1  0  0  0  0
 11 15  1  0  0  0  0
 12 16  2  0  0  0  0
 13 17  1  0  0  0  0
 14 18  2  0  0  0  0
 15 19  2  0  0  0  0
 17 20  2  0  0  0  0
 17 21  1  0  0  0  0
 19 22  1  0  0  0  0
 20 23  1  0  0  0  0
 21 24  1  0  0  0  0
 23 25  1  0  0  0  0
 25 26  1  0  0  0  0
 25 27  1  0  0  0  0
  5  6  1  0  0  0  0
 16 19  1  0  0  0  0
 18 20  1  0  0  0  0
 24 25  1  0  0  0  0
M  END
>  <S/N>
321

>  <Compound ID>
C_337

>  <PubChem CID>
145964658

>  <Isomeric SMILES>
CC1(CCC2=C(O1)C=CC(=C2)CC3=C(C(OC3=O)O)C4=CC=C(C=C4)O)C

>  <IC50 (�M)>
13.36

>  <pIC50>
4.87

$$$$
C_338
Actelion Java MolfileCreator 1.0

 23 24  0  0  0  0  0  0  0  0999 V2000
    2.5981    1.0000   -0.0000 O   0  0  0  0  0  0  0  0  0  0  0  0
    2.5981   -0.0000   -0.0000 C   0  0  0  0  0  0  0  0  0  0  0  0
    3.4641   -0.5000   -0.0000 C   0  0  0  0  0  0  0  0  0  0  0  0
    1.7321   -0.5000   -0.0000 C   0  0  0  0  0  0  0  0  0  0  0  0
    4.3301   -0.0000   -0.0000 C   0  0  0  0  0  0  0  0  0  0  0  0
    0.8660   -0.0000   -0.0000 C   0  0  0  0  0  0  0  0  0  0  0  0
    4.3301    1.0000   -0.0000 O   0  0  0  0  0  0  0  0  0  0  0  0
    5.1962   -0.5000   -0.0000 C   0  0  0  0  0  0  0  0  0  0  0  0
    0.0000   -0.5000   -0.0000 C   0  0  0  0  0  0  0  0  0  0  0  0
    6.0622    0.0000   -0.0000 C   0  0  0  0  0  0  0  0  0  0  0  0
    5.1962   -1.5000   -0.0000 C   0  0  0  0  0  0  0  0  0  0  0  0
   -0.8660    0.0000   -0.0000 C   0  0  0  0  0  0  0  0  0  0  0  0
   -0.0000   -1.5000   -0.0000 C   0  0  0  0  0  0  0  0  0  0  0  0
    6.0622    1.0000   -0.0000 O   0  0  0  0  0  0  0  0  0  0  0  0
    6.9282   -0.5000   -0.0000 C   0  0  0  0  0  0  0  0  0  0  0  0
    6.0622   -2.0000   -0.0000 C   0  0  0  0  0  0  0  0  0  0  0  0
   -0.8660    1.0000   -0.0000 O   0  0  0  0  0  0  0  0  0  0  0  0
   -1.7321   -0.5000   -0.0000 C   0  0  0  0  0  0  0  0  0  0  0  0
   -0.8660   -2.0000   -0.0000 C   0  0  0  0  0  0  0  0  0  0  0  0
    6.9282   -1.5000   -0.0000 C   0  0  0  0  0  0  0  0  0  0  0  0
    6.0622   -3.0000   -0.0000 O   0  0  0  0  0  0  0  0  0  0  0  0
   -1.7321   -1.5000   -0.0000 C   0  0  0  0  0  0  0  0  0  0  0  0
   -0.8660   -3.0000   -0.0000 O   0  0  0  0  0  0  0  0  0  0  0  0
  1  2  2  0  0  0  0
  2  3  1  0  0  0  0
  2  4  1  0  0  0  0
  3  5  2  0  0  0  0
  4  6  2  0  0  0  0
  5  7  1  0  0  0  0
  5  8  1  0  0  0  0
  6  9  1  0  0  0  0
  8 10  2  0  0  0  0
  8 11  1  0  0  0  0
  9 12  2  0  0  0  0
  9 13  1  0  0  0  0
 10 14  1  0  0  0  0
 10 15  1  0  0  0  0
 11 16  2  0  0  0  0
 12 17  1  0  0  0  0
 12 18  1  0  0  0  0
 13 19  2  0  0  0  0
 15 20  2  0  0  0  0
 16 21  1  0  0  0  0
 18 22  2  0  0  0  0
 19 23  1  0  0  0  0
 16 20  1  0  0  0  0
 19 22  1  0  0  0  0
M  END
>  <S/N>
322

>  <Compound ID>
C_338

>  <PubChem CID>
145964828

>  <Isomeric SMILES>
C1=CC(=C(C=C1O)/C=C/C(=O)/C=C(/C2=C(C=CC(=C2)O)O)\O)O

>  <IC50 (�M)>
19.6

>  <pIC50>
4.71

$$$$
C_339
Actelion Java MolfileCreator 1.0

 30 32  0  0  0  0  0  0  0  0999 V2000
    3.4641   -0.5000   -0.0000 O   0  0  0  0  0  0  0  0  0  0  0  0
    4.3301   -0.0000   -0.0000 C   0  0  0  0  0  0  0  0  0  0  0  0
    2.5981   -0.0000   -0.0000 C   0  0  0  0  0  0  0  0  0  0  0  0
    5.1962   -0.5000   -0.0000 C   0  0  0  0  0  0  0  0  0  0  0  0
    4.3301    1.0000   -0.0000 C   0  0  0  0  0  0  0  0  0  0  0  0
    1.7321   -0.5000   -0.0000 C   0  0  0  0  0  0  0  0  0  0  0  0
    5.1962   -1.5000   -0.0000 O   0  0  0  0  0  0  0  0  0  0  0  0
    6.0622   -0.0000   -0.0000 C   0  0  0  0  0  0  0  0  0  0  0  0
    5.1962    1.5000   -0.0000 C   0  0  0  0  0  0  0  0  0  0  0  0
    3.4641    1.5000   -0.0000 C   0  0  0  0  0  0  0  0  0  0  0  0
    0.8660   -0.0000   -0.0000 C   0  0  0  0  0  0  0  0  0  0  0  0
    6.0622   -2.0000   -0.0000 C   0  0  0  0  0  0  0  0  0  0  0  0
    6.9282   -0.5000   -0.0000 C   0  0  0  0  0  0  0  0  0  0  0  0
    6.0622    1.0000   -0.0000 C   0  0  0  0  0  0  0  0  0  0  0  0
    5.1962    2.5000   -0.0000 O   0  0  0  0  0  0  0  0  0  0  0  0
    3.4641    2.5000   -0.0000 C   0  0  0  0  0  0  0  0  0  0  0  0
    2.5981    1.0000   -0.0000 C   0  0  0  0  0  0  0  0  0  0  0  0
    0.8660    1.0000   -0.0000 C   0  0  0  0  0  0  0  0  0  0  0  0
    0.0000   -0.5000   -0.0000 C   0  0  0  0  0  0  0  0  0  0  0  0
    6.9282   -1.5000   -0.0000 C   0  0  0  0  0  0  0  0  0  0  0  0
    7.7942   -0.0000   -0.0000 C   0  0  0  0  0  0  0  0  0  0  0  0
    4.3301    3.0000   -0.0000 C   0  0  0  0  0  0  0  0  0  0  0  0
    2.5981    3.0000   -0.0000 C   0  0  0  0  0  0  0  0  0  0  0  0
    1.7321    1.5000   -0.0000 C   0  0  0  0  0  0  0  0  0  0  0  0
    7.7942   -2.0000   -0.0000 C   0  0  0  0  0  0  0  0  0  0  0  0
    8.6603   -0.5000   -0.0000 C   0  0  0  0  0  0  0  0  0  0  0  0
    1.7321    2.5000   -0.0000 C   0  0  0  0  0  0  0  0  0  0  0  0
    8.6603   -1.5000   -0.0000 C   0  0  0  0  0  0  0  0  0  0  0  0
    0.8660    3.0000   -0.0000 O   0  0  0  0  0  0  0  0  0  0  0  0
    9.5263   -2.0000   -0.0000 O   0  0  0  0  0  0  0  0  0  0  0  0
  1  2  1  0  0  0  0
  1  3  1  0  0  0  0
  2  4  2  0  0  0  0
  2  5  1  0  0  0  0
  3  6  1  0  0  0  0
  4  7  1  0  0  0  0
  4  8  1  0  0  0  0
  5  9  2  0  0  0  0
  5 10  1  0  0  0  0
  6 11  1  0  0  0  0
  7 12  1  0  0  0  0
  8 13  1  0  0  0  0
  8 14  2  0  0  0  0
  9 15  1  0  0  0  0
 10 16  2  0  0  0  0
 10 17  1  0  0  0  0
 11 18  1  0  0  0  0
 11 19  1  0  0  0  0
 13 20  2  0  0  0  0
 13 21  1  0  0  0  0
 15 22  1  0  0  0  0
 16 23  1  0  0  0  0
 17 24  2  0  0  0  0
 20 25  1  0  0  0  0
 21 26  2  0  0  0  0
 23 27  2  0  0  0  0
 25 28  2  0  0  0  0
 27 29  1  0  0  0  0
 28 30  1  0  0  0  0
  9 14  1  0  0  0  0
 24 27  1  0  0  0  0
 26 28  1  0  0  0  0
M  END
>  <S/N>
323

>  <Compound ID>
C_339

>  <PubChem CID>
145965222

>  <Isomeric SMILES>
CC(C)CCOC1=C(C(=CC(=C1C2=CC=C(C=C2)O)OC)C3=CC=C(C=C3)O)OC

>  <IC50 (�M)>
8.58

>  <pIC50>
5.07

$$$$
C_340
Actelion Java MolfileCreator 1.0

 28 30  0  0  0  0  0  0  0  0999 V2000
    2.5981   -0.0000   -0.0000 O   0  0  0  0  0  0  0  0  0  0  0  0
    3.4641   -0.5000   -0.0000 C   0  0  0  0  0  0  0  0  0  0  0  0
    1.7321   -0.5000   -0.0000 C   0  0  0  0  0  0  0  0  0  0  0  0
    3.4641   -1.5000   -0.0000 C   0  0  0  0  0  0  0  0  0  0  0  0
    4.3301   -0.0000   -0.0000 C   0  0  0  0  0  0  0  0  0  0  0  0
    0.8660   -0.0000   -0.0000 C   0  0  0  0  0  0  0  0  0  0  0  0
    2.5981   -2.0000   -0.0000 O   0  0  0  0  0  0  0  0  0  0  0  0
    4.3301   -2.0000   -0.0000 C   0  0  0  0  0  0  0  0  0  0  0  0
    5.1962   -0.5000   -0.0000 C   0  0  0  0  0  0  0  0  0  0  0  0
    4.3301    1.0000   -0.0000 C   0  0  0  0  0  0  0  0  0  0  0  0
    0.0000   -0.5000   -0.0000 C   0  0  0  0  0  0  0  0  0  0  0  0
    2.5981   -3.0000   -0.0000 C   0  0  0  0  0  0  0  0  0  0  0  0
    4.3301   -3.0000   -0.0000 C   0  0  0  0  0  0  0  0  0  0  0  0
    5.1962   -1.5000   -0.0000 C   0  0  0  0  0  0  0  0  0  0  0  0
    6.0622   -0.0000   -0.0000 O   0  0  0  0  0  0  0  0  0  0  0  0
    5.1962    1.5000   -0.0000 C   0  0  0  0  0  0  0  0  0  0  0  0
    3.4641    1.5000   -0.0000 C   0  0  0  0  0  0  0  0  0  0  0  0
    3.4641   -3.5000   -0.0000 C   0  0  0  0  0  0  0  0  0  0  0  0
    5.1962   -3.5000   -0.0000 C   0  0  0  0  0  0  0  0  0  0  0  0
    6.0622    1.0000   -0.0000 C   0  0  0  0  0  0  0  0  0  0  0  0
    5.1962    2.5000   -0.0000 C   0  0  0  0  0  0  0  0  0  0  0  0
    3.4641    2.5000   -0.0000 C   0  0  0  0  0  0  0  0  0  0  0  0
    3.4641   -4.5000   -0.0000 C   0  0  0  0  0  0  0  0  0  0  0  0
    5.1962   -4.5000   -0.0000 C   0  0  0  0  0  0  0  0  0  0  0  0
    4.3301    3.0000   -0.0000 C   0  0  0  0  0  0  0  0  0  0  0  0
    4.3301   -5.0000   -0.0000 C   0  0  0  0  0  0  0  0  0  0  0  0
    4.3301    4.0000   -0.0000 O   0  0  0  0  0  0  0  0  0  0  0  0
    4.3301   -6.0000   -0.0000 O   0  0  0  0  0  0  0  0  0  0  0  0
  1  2  1  0  0  0  0
  1  3  1  0  0  0  0
  2  4  2  0  0  0  0
  2  5  1  0  0  0  0
  3  6  1  0  0  0  0
  4  7  1  0  0  0  0
  4  8  1  0  0  0  0
  5  9  2  0  0  0  0
  5 10  1  0  0  0  0
  6 11  2  0  0  0  0
  7 12  1  0  0  0  0
  8 13  1  0  0  0  0
  8 14  2  0  0  0  0
  9 15  1  0  0  0  0
 10 16  2  0  0  0  0
 10 17  1  0  0  0  0
 13 18  2  0  0  0  0
 13 19  1  0  0  0  0
 15 20  1  0  0  0  0
 16 21  1  0  0  0  0
 17 22  2  0  0  0  0
 18 23  1  0  0  0  0
 19 24  2  0  0  0  0
 21 25  2  0  0  0  0
 23 26  2  0  0  0  0
 25 27  1  0  0  0  0
 26 28  1  0  0  0  0
  9 14  1  0  0  0  0
 22 25  1  0  0  0  0
 24 26  1  0  0  0  0
M  END
>  <S/N>
324

>  <Compound ID>
C_340

>  <PubChem CID>
145965338

>  <Isomeric SMILES>
COC1=C(C(=C(C(=C1)C2=CC=C(C=C2)O)OC)OCC=C)C3=CC=C(C=C3)O

>  <IC50 (�M)>
83.8

>  <pIC50>
4.08

$$$$
C_341
Actelion Java MolfileCreator 1.0

 22 24  0  0  0  0  0  0  0  0999 V2000
    2.5981    1.0000   -0.0000 O   0  0  0  0  0  0  0  0  0  0  0  0
    2.5981    0.0000   -0.0000 C   0  0  0  0  0  0  0  0  0  0  0  0
    1.7321   -0.5000   -0.0000 C   0  0  0  0  0  0  0  0  0  0  0  0
    3.4641   -0.5000   -0.0000 C   0  0  0  0  0  0  0  0  0  0  0  0
    0.8660   -0.0000   -0.0000 C   0  0  0  0  0  0  0  0  0  0  0  0
    1.7321   -1.5000   -0.0000 C   0  0  0  0  0  0  0  0  0  0  0  0
    4.3301    0.0000   -0.0000 C   0  0  0  0  0  0  0  0  0  0  0  0
    3.4641   -1.5000   -0.0000 C   0  0  0  0  0  0  0  0  0  0  0  0
    0.0000   -0.5000   -0.0000 C   0  0  0  0  0  0  0  0  0  0  0  0
    2.5981   -2.0000   -0.0000 C   0  0  0  0  0  0  0  0  0  0  0  0
    5.1962   -0.5000   -0.0000 C   0  0  0  0  0  0  0  0  0  0  0  0
   -0.8660    0.0000   -0.0000 C   0  0  0  0  0  0  0  0  0  0  0  0
   -0.0000   -1.5000   -0.0000 C   0  0  0  0  0  0  0  0  0  0  0  0
    6.0622    0.0000   -0.0000 C   0  0  0  0  0  0  0  0  0  0  0  0
    5.1962   -1.5000   -0.0000 C   0  0  0  0  0  0  0  0  0  0  0  0
   -1.7321   -0.5000   -0.0000 C   0  0  0  0  0  0  0  0  0  0  0  0
   -0.8660   -2.0000   -0.0000 C   0  0  0  0  0  0  0  0  0  0  0  0
    6.9282   -0.5000   -0.0000 C   0  0  0  0  0  0  0  0  0  0  0  0
    6.0622   -2.0000   -0.0000 C   0  0  0  0  0  0  0  0  0  0  0  0
   -2.5981    0.0000   -0.0000 O   0  0  0  0  0  0  0  0  0  0  0  0
   -1.7321   -1.5000   -0.0000 C   0  0  0  0  0  0  0  0  0  0  0  0
    6.9282   -1.5000   -0.0000 C   0  0  0  0  0  0  0  0  0  0  0  0
  1  2  2  0  0  0  0
  2  3  1  0  0  0  0
  2  4  1  0  0  0  0
  3  5  2  0  0  0  0
  3  6  1  0  0  0  0
  4  7  2  0  0  0  0
  4  8  1  0  0  0  0
  5  9  1  0  0  0  0
  6 10  1  0  0  0  0
  7 11  1  0  0  0  0
  9 12  2  0  0  0  0
  9 13  1  0  0  0  0
 11 14  2  0  0  0  0
 11 15  1  0  0  0  0
 12 16  1  0  0  0  0
 13 17  2  0  0  0  0
 14 18  1  0  0  0  0
 15 19  2  0  0  0  0
 16 20  1  0  0  0  0
 16 21  2  0  0  0  0
 18 22  2  0  0  0  0
  8 10  1  0  0  0  0
 17 21  1  0  0  0  0
 19 22  1  0  0  0  0
M  END
>  <S/N>
325

>  <Compound ID>
C_341

>  <PubChem CID>
145966248

>  <Isomeric SMILES>
C1C/C(=C\C2=CC=CC=C2)/C(=O)/C(=C/C3=CC(=CC=C3)O)/C1

>  <IC50 (�M)>
28.4

>  <pIC50>
4.55

$$$$
C_342
Actelion Java MolfileCreator 1.0

 28 30  0  0  0  0  0  0  0  0999 V2000
    3.4641   -0.5000   -0.0000 Br  0  0  0  0  0  0  0  0  0  0  0  0
    2.5981   -0.0000   -0.0000 C   0  0  0  0  0  0  0  0  0  0  0  0
    1.7321   -0.5000   -0.0000 C   0  0  0  0  0  0  0  0  0  0  0  0
    0.8660   -0.0000   -0.0000 O   0  0  0  0  0  0  0  0  0  0  0  0
    0.0000   -0.5000   -0.0000 C   0  0  0  0  0  0  0  0  0  0  0  0
   -0.8660    0.0000   -0.0000 C   0  0  0  0  0  0  0  0  0  0  0  0
   -0.0000   -1.5000   -0.0000 C   0  0  0  0  0  0  0  0  0  0  0  0
   -1.7321   -0.5000   -0.0000 C   0  0  0  0  0  0  0  0  0  0  0  0
   -0.8660   -2.0000   -0.0000 C   0  0  0  0  0  0  0  0  0  0  0  0
   -1.7321   -1.5000   -0.0000 C   0  0  0  0  0  0  0  0  0  0  0  0
   -2.5981   -2.0000   -0.0000 C   0  0  0  0  0  0  0  0  0  0  0  0
   -3.4641   -1.5000   -0.0000 C   0  0  0  0  0  0  0  0  0  0  0  0
   -2.5981   -3.0000   -0.0000 C   0  0  0  0  0  0  0  0  0  0  0  0
   -3.4641   -0.5000   -0.0000 O   0  0  0  0  0  0  0  0  0  0  0  0
   -4.3301   -2.0000   -0.0000 C   0  0  0  0  0  0  0  0  0  0  0  0
   -3.4641   -3.5000   -0.0000 C   0  0  0  0  0  0  0  0  0  0  0  0
   -4.3301    0.0000   -0.0000 C   0  0  0  0  0  0  0  0  0  0  0  0
   -5.1962   -1.5000   -0.0000 O   0  0  0  0  0  0  0  0  0  0  0  0
   -4.3301   -3.0000   -0.0000 C   0  0  0  0  0  0  0  0  0  0  0  0
   -3.4641   -4.5000   -0.0000 O   0  0  0  0  0  0  0  0  0  0  0  0
   -5.1962   -3.5000   -0.0000 C   0  0  0  0  0  0  0  0  0  0  0  0
   -2.5981   -5.0000   -0.0000 C   0  0  0  0  0  0  0  0  0  0  0  0
   -6.0622   -3.0000   -0.0000 C   0  0  0  0  0  0  0  0  0  0  0  0
   -5.1962   -4.5000   -0.0000 C   0  0  0  0  0  0  0  0  0  0  0  0
   -6.9282   -3.5000   -0.0000 C   0  0  0  0  0  0  0  0  0  0  0  0
   -6.0622   -5.0000   -0.0000 C   0  0  0  0  0  0  0  0  0  0  0  0
   -6.9282   -4.5000   -0.0000 C   0  0  0  0  0  0  0  0  0  0  0  0
   -7.7942   -5.0000   -0.0000 O   0  0  0  0  0  0  0  0  0  0  0  0
  1  2  1  0  0  0  0
  2  3  1  0  0  0  0
  3  4  1  0  0  0  0
  4  5  1  0  0  0  0
  5  6  2  0  0  0  0
  5  7  1  0  0  0  0
  6  8  1  0  0  0  0
  7  9  2  0  0  0  0
  8 10  2  0  0  0  0
 10 11  1  0  0  0  0
 11 12  2  0  0  0  0
 11 13  1  0  0  0  0
 12 14  1  0  0  0  0
 12 15  1  0  0  0  0
 13 16  2  0  0  0  0
 14 17  1  0  0  0  0
 15 18  1  0  0  0  0
 15 19  2  0  0  0  0
 16 20  1  0  0  0  0
 19 21  1  0  0  0  0
 20 22  1  0  0  0  0
 21 23  2  0  0  0  0
 21 24  1  0  0  0  0
 23 25  1  0  0  0  0
 24 26  2  0  0  0  0
 25 27  2  0  0  0  0
 27 28  1  0  0  0  0
  9 10  1  0  0  0  0
 16 19  1  0  0  0  0
 26 27  1  0  0  0  0
M  END
>  <S/N>
326

>  <Compound ID>
C_342

>  <PubChem CID>
145966252

>  <Isomeric SMILES>
COC1=C(C(=C(C(=C1)C2=CC=C(C=C2)OCCBr)OC)O)C3=CC=C(C=C3)O

>  <IC50 (�M)>
16.1

>  <pIC50>
4.79

$$$$
C_343
Actelion Java MolfileCreator 1.0

 28 30  0  0  0  0  0  0  0  0999 V2000
    2.5981   -0.0000   -0.0000 O   0  0  0  0  0  0  0  0  0  0  0  0
    3.4641   -0.5000   -0.0000 C   0  0  0  0  0  0  0  0  0  0  0  0
    1.7321   -0.5000   -0.0000 C   0  0  0  0  0  0  0  0  0  0  0  0
    3.4641   -1.5000   -0.0000 C   0  0  0  0  0  0  0  0  0  0  0  0
    4.3301   -0.0000   -0.0000 C   0  0  0  0  0  0  0  0  0  0  0  0
    0.8660   -0.0000   -0.0000 C   0  0  0  0  0  0  0  0  0  0  0  0
    4.3301   -2.0000   -0.0000 C   0  0  0  0  0  0  0  0  0  0  0  0
    5.1962   -0.5000   -0.0000 C   0  0  0  0  0  0  0  0  0  0  0  0
    0.0000   -0.5000   -0.0000 C   0  0  0  0  0  0  0  0  0  0  0  0
    5.1962   -1.5000   -0.0000 C   0  0  0  0  0  0  0  0  0  0  0  0
    6.0622   -2.0000   -0.0000 C   0  0  0  0  0  0  0  0  0  0  0  0
    6.0622   -3.0000   -0.0000 C   0  0  0  0  0  0  0  0  0  0  0  0
    6.9282   -1.5000   -0.0000 C   0  0  0  0  0  0  0  0  0  0  0  0
    5.1962   -3.5000   -0.0000 O   0  0  0  0  0  0  0  0  0  0  0  0
    6.9282   -3.5000   -0.0000 C   0  0  0  0  0  0  0  0  0  0  0  0
    6.9282   -0.5000   -0.0000 O   0  0  0  0  0  0  0  0  0  0  0  0
    7.7942   -2.0000   -0.0000 C   0  0  0  0  0  0  0  0  0  0  0  0
    6.9282   -4.5000   -0.0000 O   0  0  0  0  0  0  0  0  0  0  0  0
    7.7942   -3.0000   -0.0000 C   0  0  0  0  0  0  0  0  0  0  0  0
    6.0622   -0.0000   -0.0000 C   0  0  0  0  0  0  0  0  0  0  0  0
    7.7942   -5.0000   -0.0000 C   0  0  0  0  0  0  0  0  0  0  0  0
    8.6603   -3.5000   -0.0000 C   0  0  0  0  0  0  0  0  0  0  0  0
    8.6603   -4.5000   -0.0000 C   0  0  0  0  0  0  0  0  0  0  0  0
    9.5263   -3.0000   -0.0000 C   0  0  0  0  0  0  0  0  0  0  0  0
    9.5263   -5.0000   -0.0000 C   0  0  0  0  0  0  0  0  0  0  0  0
   10.3923   -3.5000   -0.0000 C   0  0  0  0  0  0  0  0  0  0  0  0
   10.3923   -4.5000   -0.0000 C   0  0  0  0  0  0  0  0  0  0  0  0
   11.2583   -5.0000   -0.0000 O   0  0  0  0  0  0  0  0  0  0  0  0
  1  2  1  0  0  0  0
  1  3  1  0  0  0  0
  2  4  2  0  0  0  0
  2  5  1  0  0  0  0
  3  6  1  0  0  0  0
  4  7  1  0  0  0  0
  5  8  2  0  0  0  0
  6  9  1  0  0  0  0
  7 10  2  0  0  0  0
 10 11  1  0  0  0  0
 11 12  2  0  0  0  0
 11 13  1  0  0  0  0
 12 14  1  0  0  0  0
 12 15  1  0  0  0  0
 13 16  1  0  0  0  0
 13 17  2  0  0  0  0
 15 18  1  0  0  0  0
 15 19  2  0  0  0  0
 16 20  1  0  0  0  0
 18 21  1  0  0  0  0
 19 22  1  0  0  0  0
 22 23  2  0  0  0  0
 22 24  1  0  0  0  0
 23 25  1  0  0  0  0
 24 26  2  0  0  0  0
 25 27  2  0  0  0  0
 27 28  1  0  0  0  0
  8 10  1  0  0  0  0
 17 19  1  0  0  0  0
 26 27  1  0  0  0  0
M  END
>  <S/N>
327

>  <Compound ID>
C_343

>  <PubChem CID>
145966541

>  <Isomeric SMILES>
CCCOC1=CC=C(C=C1)C2=C(C=C(C(=C2O)OC)C3=CC=C(C=C3)O)OC

>  <IC50 (�M)>
12.3

>  <pIC50>
4.91

$$$$
C_344
Actelion Java MolfileCreator 1.0

 26 28  0  0  0  0  0  0  0  0999 V2000
    2.5981    1.0000   -0.0000 Cl  0  0  0  0  0  0  0  0  0  0  0  0
    2.5981    0.0000   -0.0000 C   0  0  0  0  0  0  0  0  0  0  0  0
    1.7321   -0.5000   -0.0000 C   0  0  0  0  0  0  0  0  0  0  0  0
    3.4641   -0.5000   -0.0000 C   0  0  0  0  0  0  0  0  0  0  0  0
    0.8660   -0.0000   -0.0000 O   0  0  0  0  0  0  0  0  0  0  0  0
    1.7321   -1.5000   -0.0000 C   0  0  0  0  0  0  0  0  0  0  0  0
    3.4641   -1.5000   -0.0000 C   0  0  0  0  0  0  0  0  0  0  0  0
    4.3301    0.0000   -0.0000 C   0  0  0  0  0  0  0  0  0  0  0  0
    0.0000   -0.5000   -0.0000 C   0  0  0  0  0  0  0  0  0  0  0  0
    2.5981   -2.0000   -0.0000 C   0  0  0  0  0  0  0  0  0  0  0  0
    0.8660   -2.0000   -0.0000 C   0  0  0  0  0  0  0  0  0  0  0  0
    4.3301   -2.0000   -0.0000 O   0  0  0  0  0  0  0  0  0  0  0  0
    5.1962   -0.5000   -0.0000 C   0  0  0  0  0  0  0  0  0  0  0  0
    4.3301    1.0000   -0.0000 C   0  0  0  0  0  0  0  0  0  0  0  0
    2.5981   -3.0000   -0.0000 O   0  0  0  0  0  0  0  0  0  0  0  0
    0.0000   -1.5000   -0.0000 C   0  0  0  0  0  0  0  0  0  0  0  0
    0.8660   -3.0000   -0.0000 C   0  0  0  0  0  0  0  0  0  0  0  0
    5.1962   -1.5000   -0.0000 C   0  0  0  0  0  0  0  0  0  0  0  0
    6.0622    0.0000   -0.0000 C   0  0  0  0  0  0  0  0  0  0  0  0
    5.1962    1.5000   -0.0000 C   0  0  0  0  0  0  0  0  0  0  0  0
   -0.8660   -2.0000   -0.0000 C   0  0  0  0  0  0  0  0  0  0  0  0
    0.0000   -3.5000   -0.0000 C   0  0  0  0  0  0  0  0  0  0  0  0
    6.0622    1.0000   -0.0000 C   0  0  0  0  0  0  0  0  0  0  0  0
   -0.8660   -3.0000   -0.0000 C   0  0  0  0  0  0  0  0  0  0  0  0
    6.9282    1.5000   -0.0000 O   0  0  0  0  0  0  0  0  0  0  0  0
   -1.7321   -3.5000   -0.0000 O   0  0  0  0  0  0  0  0  0  0  0  0
  1  2  1  0  0  0  0
  2  3  2  0  0  0  0
  2  4  1  0  0  0  0
  3  5  1  0  0  0  0
  3  6  1  0  0  0  0
  4  7  2  0  0  0  0
  4  8  1  0  0  0  0
  5  9  1  0  0  0  0
  6 10  2  0  0  0  0
  6 11  1  0  0  0  0
  7 12  1  0  0  0  0
  8 13  2  0  0  0  0
  8 14  1  0  0  0  0
 10 15  1  0  0  0  0
 11 16  2  0  0  0  0
 11 17  1  0  0  0  0
 12 18  1  0  0  0  0
 13 19  1  0  0  0  0
 14 20  2  0  0  0  0
 16 21  1  0  0  0  0
 17 22  2  0  0  0  0
 19 23  2  0  0  0  0
 21 24  2  0  0  0  0
 23 25  1  0  0  0  0
 24 26  1  0  0  0  0
  7 10  1  0  0  0  0
 20 23  1  0  0  0  0
 22 24  1  0  0  0  0
M  END
>  <S/N>
328

>  <Compound ID>
C_344

>  <PubChem CID>
145966678

>  <Isomeric SMILES>
COC1=C(C(=C(C(=C1C2=CC=C(C=C2)O)O)OC)C3=CC=C(C=C3)O)Cl

>  <IC50 (�M)>
31.3

>  <pIC50>
4.5

$$$$
C_345
Actelion Java MolfileCreator 1.0

 34 36  0  0  0  0  0  0  0  0999 V2000
    8.6603   -3.5000   -0.0000 O   0  0  0  0  0  0  0  0  0  0  0  0
    7.7942   -3.0000   -0.0000 C   0  0  0  0  0  0  0  0  0  0  0  0
    7.7942   -2.0000   -0.0000 C   0  0  0  0  0  0  0  0  0  0  0  0
    6.9282   -3.5000   -0.0000 C   0  0  0  0  0  0  0  0  0  0  0  0
    6.9282   -1.5000   -0.0000 C   0  0  0  0  0  0  0  0  0  0  0  0
    8.6603   -1.5000   -0.0000 C   0  0  0  0  0  0  0  0  0  0  0  0
    6.0622   -3.0000   -0.0000 C   0  0  0  0  0  0  0  0  0  0  0  0
    6.9282   -4.5000   -0.0000 C   0  0  0  0  0  0  0  0  0  0  0  0
    6.0622   -2.0000   -0.0000 O   0  0  0  0  0  0  0  0  0  0  0  0
    6.9282   -0.5000   -0.0000 C   0  0  0  0  0  0  0  0  0  0  0  0
    9.5263   -2.0000   -0.0000 O   0  0  0  0  0  0  0  0  0  0  0  0
    8.6603   -0.5000   -0.0000 C   0  0  0  0  0  0  0  0  0  0  0  0
    5.1962   -3.5000   -0.0000 C   0  0  0  0  0  0  0  0  0  0  0  0
    6.0622   -5.0000   -0.0000 C   0  0  0  0  0  0  0  0  0  0  0  0
    7.7942   -0.0000   -0.0000 C   0  0  0  0  0  0  0  0  0  0  0  0
    6.0622   -0.0000   -0.0000 C   0  0  0  0  0  0  0  0  0  0  0  0
    9.5263   -0.0000   -0.0000 C   0  0  0  0  0  0  0  0  0  0  0  0
    5.1962   -4.5000   -0.0000 C   0  0  0  0  0  0  0  0  0  0  0  0
    6.0622   -6.0000   -0.0000 O   0  0  0  0  0  0  0  0  0  0  0  0
    7.7942    1.0000   -0.0000 O   0  0  0  0  0  0  0  0  0  0  0  0
    5.1962   -0.5000   -0.0000 C   0  0  0  0  0  0  0  0  0  0  0  0
    9.5263    1.0000   -0.0000 C   0  0  0  0  0  0  0  0  0  0  0  0
    4.3301   -0.0000   -0.0000 C   0  0  0  0  0  0  0  0  0  0  0  0
    8.6603    1.5000   -0.0000 O   0  0  0  0  0  0  0  0  0  0  0  0
   10.3923    1.5000   -0.0000 C   0  0  0  0  0  0  0  0  0  0  0  0
    3.4641   -0.5000   -0.0000 C   0  0  0  0  0  0  0  0  0  0  0  0
    4.3301    1.0000   -0.0000 C   0  0  0  0  0  0  0  0  0  0  0  0
   11.2583    1.0000   -0.0000 C   0  0  0  0  0  0  0  0  0  0  0  0
   10.3923    2.5000   -0.0000 C   0  0  0  0  0  0  0  0  0  0  0  0
    2.5981   -0.0000   -0.0000 C   0  0  0  0  0  0  0  0  0  0  0  0
    1.7321   -0.5000   -0.0000 C   0  0  0  0  0  0  0  0  0  0  0  0
    0.8660   -0.0000   -0.0000 C   0  0  0  0  0  0  0  0  0  0  0  0
    0.8660    1.0000   -0.0000 C   0  0  0  0  0  0  0  0  0  0  0  0
    0.0000   -0.5000   -0.0000 C   0  0  0  0  0  0  0  0  0  0  0  0
  1  2  2  0  0  0  0
  2  3  1  0  0  0  0
  2  4  1  0  0  0  0
  3  5  2  0  0  0  0
  3  6  1  0  0  0  0
  4  7  2  0  0  0  0
  4  8  1  0  0  0  0
  5  9  1  0  0  0  0
  5 10  1  0  0  0  0
  6 11  1  0  0  0  0
  6 12  2  0  0  0  0
  7 13  1  0  0  0  0
  8 14  2  0  0  0  0
 10 15  2  0  0  0  0
 10 16  1  0  0  0  0
 12 17  1  0  0  0  0
 13 18  2  0  0  0  0
 14 19  1  0  0  0  0
 15 20  1  0  0  0  0
 16 21  1  0  0  0  0
 17 22  1  0  0  0  0
 21 23  2  0  0  0  0
 22 24  1  6  0  0  0
 22 25  1  0  0  0  0
 23 26  1  0  0  0  0
 23 27  1  0  0  0  0
 25 28  2  0  0  0  0
 25 29  1  0  0  0  0
 26 30  1  0  0  0  0
 30 31  1  0  0  0  0
 31 32  2  0  0  0  0
 32 33  1  0  0  0  0
 32 34  1  0  0  0  0
  7  9  1  0  0  0  0
 12 15  1  0  0  0  0
 14 18  1  0  0  0  0
M  END
>  <S/N>
329

>  <Compound ID>
C_345

>  <PubChem CID>
145966924

>  <Isomeric SMILES>
CC(=CCC/C(=C/CC1=C(C(=C(C2=C1OC3=C(C2=O)C=C(C=C3)O)O)CC(C(=C)C)O)O)/C)C

>  <IC50 (�M)>
4.8

>  <pIC50>
5.32

$$$$
C_346
Actelion Java MolfileCreator 1.0

 20 21  0  0  0  0  0  0  0  0999 V2000
    4.3301   -2.0000   -0.0000 O   0  0  0  0  0  0  0  0  0  0  0  0
    3.4641   -1.5000   -0.0000 C   0  0  0  0  0  0  0  0  0  0  0  0
    3.4641   -0.5000   -0.0000 C   0  0  0  0  0  0  0  0  0  0  0  0
    2.5981   -2.0000   -0.0000 C   0  0  0  0  0  0  0  0  0  0  0  0
    4.3301   -0.0000   -0.0000 C   0  0  0  0  0  0  0  0  0  0  0  0
    2.5981   -3.0000   -0.0000 C   0  0  0  0  0  0  0  0  0  0  0  0
    5.1962   -0.5000   -0.0000 O   0  0  0  0  0  0  0  0  0  0  0  0
    4.3301    1.0000   -0.0000 C   0  0  0  0  0  0  0  0  0  0  0  0
    1.7321   -3.5000   -0.0000 C   0  0  0  0  0  0  0  0  0  0  0  0
    5.1962    1.5000   -0.0000 C   0  0  0  0  0  0  0  0  0  0  0  0
    3.4641    1.5000   -0.0000 C   0  0  0  0  0  0  0  0  0  0  0  0
    1.6275   -4.4945   -0.0000 O   0  0  0  0  0  0  0  0  0  0  0  0
    0.8185   -3.0933   -0.0000 C   0  0  0  0  0  0  0  0  0  0  0  0
    6.0622    1.0000   -0.0000 O   0  0  0  0  0  0  0  0  0  0  0  0
    5.1962    2.5000   -0.0000 C   0  0  0  0  0  0  0  0  0  0  0  0
    3.4641    2.5000   -0.0000 C   0  0  0  0  0  0  0  0  0  0  0  0
    0.6494   -4.7024   -0.0000 C   0  0  0  0  0  0  0  0  0  0  0  0
    0.1494   -3.8364   -0.0000 C   0  0  0  0  0  0  0  0  0  0  0  0
    4.3301    3.0000   -0.0000 C   0  0  0  0  0  0  0  0  0  0  0  0
    2.5981    3.0000   -0.0000 O   0  0  0  0  0  0  0  0  0  0  0  0
  1  2  2  0  0  0  0
  2  3  1  0  0  0  0
  2  4  1  0  0  0  0
  3  5  2  0  0  0  0
  4  6  2  0  0  0  0
  5  7  1  0  0  0  0
  5  8  1  0  0  0  0
  6  9  1  0  0  0  0
  8 10  2  0  0  0  0
  8 11  1  0  0  0  0
  9 12  1  0  0  0  0
  9 13  2  0  0  0  0
 10 14  1  0  0  0  0
 10 15  1  0  0  0  0
 11 16  2  0  0  0  0
 12 17  1  0  0  0  0
 13 18  1  0  0  0  0
 15 19  2  0  0  0  0
 16 20  1  0  0  0  0
 16 19  1  0  0  0  0
 17 18  2  0  0  0  0
M  END
>  <S/N>
330

>  <Compound ID>
C_346

>  <PubChem CID>
145966975

>  <Isomeric SMILES>
C1=COC(=C1)/C=C/C(=O)/C=C(/C2=C(C=CC(=C2)O)O)\O

>  <IC50 (�M)>
14.1

>  <pIC50>
4.85

$$$$
C_347
Actelion Java MolfileCreator 1.0

 23 25  0  0  0  0  0  0  0  0999 V2000
    2.5981    1.0000   -0.0000 O   0  0  0  0  0  0  0  0  0  0  0  0
    2.5981    0.0000   -0.0000 C   0  0  0  0  0  0  0  0  0  0  0  0
    1.7321   -0.5000   -0.0000 C   0  0  0  0  0  0  0  0  0  0  0  0
    3.4641   -0.5000   -0.0000 C   0  0  0  0  0  0  0  0  0  0  0  0
    0.8660   -0.0000   -0.0000 C   0  0  0  0  0  0  0  0  0  0  0  0
    1.7321   -1.5000   -0.0000 C   0  0  0  0  0  0  0  0  0  0  0  0
    4.3301    0.0000   -0.0000 C   0  0  0  0  0  0  0  0  0  0  0  0
    3.4641   -1.5000   -0.0000 C   0  0  0  0  0  0  0  0  0  0  0  0
    0.0000   -0.5000   -0.0000 C   0  0  0  0  0  0  0  0  0  0  0  0
    2.5981   -2.0000   -0.0000 C   0  0  0  0  0  0  0  0  0  0  0  0
    5.1962   -0.5000   -0.0000 C   0  0  0  0  0  0  0  0  0  0  0  0
   -0.8660    0.0000   -0.0000 C   0  0  0  0  0  0  0  0  0  0  0  0
   -0.0000   -1.5000   -0.0000 C   0  0  0  0  0  0  0  0  0  0  0  0
    6.0622    0.0000   -0.0000 C   0  0  0  0  0  0  0  0  0  0  0  0
    5.1962   -1.5000   -0.0000 C   0  0  0  0  0  0  0  0  0  0  0  0
   -1.7321   -0.5000   -0.0000 C   0  0  0  0  0  0  0  0  0  0  0  0
   -0.8660   -2.0000   -0.0000 C   0  0  0  0  0  0  0  0  0  0  0  0
    6.9282   -0.5000   -0.0000 C   0  0  0  0  0  0  0  0  0  0  0  0
    6.0622   -2.0000   -0.0000 C   0  0  0  0  0  0  0  0  0  0  0  0
   -2.5981    0.0000   -0.0000 O   0  0  0  0  0  0  0  0  0  0  0  0
   -1.7321   -1.5000   -0.0000 C   0  0  0  0  0  0  0  0  0  0  0  0
    6.9282   -1.5000   -0.0000 C   0  0  0  0  0  0  0  0  0  0  0  0
   -2.5981   -2.0000   -0.0000 O   0  0  0  0  0  0  0  0  0  0  0  0
  1  2  2  0  0  0  0
  2  3  1  0  0  0  0
  2  4  1  0  0  0  0
  3  5  2  0  0  0  0
  3  6  1  0  0  0  0
  4  7  2  0  0  0  0
  4  8  1  0  0  0  0
  5  9  1  0  0  0  0
  6 10  1  0  0  0  0
  7 11  1  0  0  0  0
  9 12  2  0  0  0  0
  9 13  1  0  0  0  0
 11 14  2  0  0  0  0
 11 15  1  0  0  0  0
 12 16  1  0  0  0  0
 13 17  2  0  0  0  0
 14 18  1  0  0  0  0
 15 19  2  0  0  0  0
 16 20  1  0  0  0  0
 16 21  2  0  0  0  0
 18 22  2  0  0  0  0
 21 23  1  0  0  0  0
  8 10  1  0  0  0  0
 17 21  1  0  0  0  0
 19 22  1  0  0  0  0
M  END
>  <S/N>
331

>  <Compound ID>
C_347

>  <PubChem CID>
145967044

>  <Isomeric SMILES>
C1C/C(=C\C2=CC=CC=C2)/C(=O)/C(=C/C3=CC(=C(C=C3)O)O)/C1

>  <IC50 (�M)>
20.3

>  <pIC50>
4.69

$$$$
C_348
Actelion Java MolfileCreator 1.0

 32 35  0  0  0  0  0  0  0  0999 V2000
    1.7321   -0.5000   -0.0000 O   0  0  0  0  0  0  0  0  0  0  0  0
    2.5981   -0.0000   -0.0000 C   0  0  0  0  0  0  0  0  0  0  0  0
    0.8660   -0.0000   -0.0000 C   0  0  0  0  0  0  0  0  0  0  0  0
    3.4641   -0.5000   -0.0000 C   0  0  0  0  0  0  0  0  0  0  0  0
    2.5981    1.0000   -0.0000 C   0  0  0  0  0  0  0  0  0  0  0  0
    0.0000   -0.5000   -0.0000 C   0  0  0  0  0  0  0  0  0  0  0  0
    4.3301    0.0000   -0.0000 C   0  0  0  0  0  0  0  0  0  0  0  0
    3.4641    1.5000   -0.0000 C   0  0  0  0  0  0  0  0  0  0  0  0
   -0.8660    0.0000   -0.0000 C   0  0  0  0  0  0  0  0  0  0  0  0
   -0.0000   -1.5000   -0.0000 C   0  0  0  0  0  0  0  0  0  0  0  0
    4.3301    1.0000   -0.0000 C   0  0  0  0  0  0  0  0  0  0  0  0
   -1.7321   -0.5000   -0.0000 C   0  0  0  0  0  0  0  0  0  0  0  0
   -0.8660   -2.0000   -0.0000 C   0  0  0  0  0  0  0  0  0  0  0  0
    5.1962    1.5000   -0.0000 C   0  0  0  0  0  0  0  0  0  0  0  0
   -1.7321   -1.5000   -0.0000 C   0  0  0  0  0  0  0  0  0  0  0  0
    6.0622    1.0000   -0.0000 C   0  0  0  0  0  0  0  0  0  0  0  0
    5.1962    2.5000   -0.0000 C   0  0  0  0  0  0  0  0  0  0  0  0
    6.0622    0.0000   -0.0000 O   0  0  0  0  0  0  0  0  0  0  0  0
    6.9282    1.5000   -0.0000 C   0  0  0  0  0  0  0  0  0  0  0  0
    6.0622    3.0000   -0.0000 C   0  0  0  0  0  0  0  0  0  0  0  0
    6.9282   -0.5000   -0.0000 C   0  0  0  0  0  0  0  0  0  0  0  0
    7.7942    1.0000   -0.0000 O   0  0  0  0  0  0  0  0  0  0  0  0
    6.9282    2.5000   -0.0000 C   0  0  0  0  0  0  0  0  0  0  0  0
    6.0622    4.0000   -0.0000 O   0  0  0  0  0  0  0  0  0  0  0  0
    7.7942    3.0000   -0.0000 C   0  0  0  0  0  0  0  0  0  0  0  0
    5.1962    4.5000   -0.0000 C   0  0  0  0  0  0  0  0  0  0  0  0
    8.6603    2.5000   -0.0000 C   0  0  0  0  0  0  0  0  0  0  0  0
    7.7942    4.0000   -0.0000 C   0  0  0  0  0  0  0  0  0  0  0  0
    9.5263    3.0000   -0.0000 C   0  0  0  0  0  0  0  0  0  0  0  0
    8.6603    4.5000   -0.0000 C   0  0  0  0  0  0  0  0  0  0  0  0
    9.5263    4.0000   -0.0000 C   0  0  0  0  0  0  0  0  0  0  0  0
   10.3923    4.5000   -0.0000 O   0  0  0  0  0  0  0  0  0  0  0  0
  1  2  1  0  0  0  0
  1  3  1  0  0  0  0
  2  4  2  0  0  0  0
  2  5  1  0  0  0  0
  3  6  1  0  0  0  0
  4  7  1  0  0  0  0
  5  8  2  0  0  0  0
  6  9  2  0  0  0  0
  6 10  1  0  0  0  0
  7 11  2  0  0  0  0
  9 12  1  0  0  0  0
 10 13  2  0  0  0  0
 11 14  1  0  0  0  0
 12 15  2  0  0  0  0
 14 16  2  0  0  0  0
 14 17  1  0  0  0  0
 16 18  1  0  0  0  0
 16 19  1  0  0  0  0
 17 20  2  0  0  0  0
 18 21  1  0  0  0  0
 19 22  1  0  0  0  0
 19 23  2  0  0  0  0
 20 24  1  0  0  0  0
 23 25  1  0  0  0  0
 24 26  1  0  0  0  0
 25 27  2  0  0  0  0
 25 28  1  0  0  0  0
 27 29  1  0  0  0  0
 28 30  2  0  0  0  0
 29 31  2  0  0  0  0
 31 32  1  0  0  0  0
  8 11  1  0  0  0  0
 13 15  1  0  0  0  0
 20 23  1  0  0  0  0
 30 31  1  0  0  0  0
M  END
>  <S/N>
332

>  <Compound ID>
C_348

>  <PubChem CID>
145967377

>  <Isomeric SMILES>
COC1=C(C(=C(C(=C1)C2=CC=C(C=C2)OCC3=CC=CC=C3)OC)O)C4=CC=C(C=C4)O

>  <IC50 (�M)>
12.5

>  <pIC50>
4.9

$$$$
C_349
Actelion Java MolfileCreator 1.0

 35 37  0  0  0  0  0  0  0  0999 V2000
    3.4641   -0.5000   -0.0000 O   0  0  0  0  0  0  0  0  0  0  0  0
    4.3301   -0.0000   -0.0000 C   0  0  0  0  0  0  0  0  0  0  0  0
    2.5981   -0.0000   -0.0000 C   0  0  0  0  0  0  0  0  0  0  0  0
    5.1962   -0.5000   -0.0000 C   0  0  0  0  0  0  0  0  0  0  0  0
    4.3301    1.0000   -0.0000 C   0  0  0  0  0  0  0  0  0  0  0  0
    1.7321   -0.5000   -0.0000 C   0  0  0  0  0  0  0  0  0  0  0  0
    5.1962   -1.5000   -0.0000 O   0  0  0  0  0  0  0  0  0  0  0  0
    6.0622   -0.0000   -0.0000 C   0  0  0  0  0  0  0  0  0  0  0  0
    5.1962    1.5000   -0.0000 C   0  0  0  0  0  0  0  0  0  0  0  0
    3.4641    1.5000   -0.0000 C   0  0  0  0  0  0  0  0  0  0  0  0
    0.8660   -0.0000   -0.0000 C   0  0  0  0  0  0  0  0  0  0  0  0
    6.0622   -2.0000   -0.0000 C   0  0  0  0  0  0  0  0  0  0  0  0
    6.9282   -0.5000   -0.0000 C   0  0  0  0  0  0  0  0  0  0  0  0
    6.0622    1.0000   -0.0000 C   0  0  0  0  0  0  0  0  0  0  0  0
    5.1962    2.5000   -0.0000 O   0  0  0  0  0  0  0  0  0  0  0  0
    3.4641    2.5000   -0.0000 C   0  0  0  0  0  0  0  0  0  0  0  0
    2.5981    1.0000   -0.0000 C   0  0  0  0  0  0  0  0  0  0  0  0
    0.8660    1.0000   -0.0000 C   0  0  0  0  0  0  0  0  0  0  0  0
    0.0000   -0.5000   -0.0000 C   0  0  0  0  0  0  0  0  0  0  0  0
    6.9282   -1.5000   -0.0000 C   0  0  0  0  0  0  0  0  0  0  0  0
    7.7942   -0.0000   -0.0000 C   0  0  0  0  0  0  0  0  0  0  0  0
    4.3301    3.0000   -0.0000 C   0  0  0  0  0  0  0  0  0  0  0  0
    2.5981    3.0000   -0.0000 C   0  0  0  0  0  0  0  0  0  0  0  0
    1.7321    1.5000   -0.0000 C   0  0  0  0  0  0  0  0  0  0  0  0
    7.7942   -2.0000   -0.0000 C   0  0  0  0  0  0  0  0  0  0  0  0
    8.6603   -0.5000   -0.0000 C   0  0  0  0  0  0  0  0  0  0  0  0
    1.7321    2.5000   -0.0000 C   0  0  0  0  0  0  0  0  0  0  0  0
    8.6603   -1.5000   -0.0000 C   0  0  0  0  0  0  0  0  0  0  0  0
    0.8660    3.0000   -0.0000 O   0  0  0  0  0  0  0  0  0  0  0  0
    9.5263   -2.0000   -0.0000 O   0  0  0  0  0  0  0  0  0  0  0  0
    9.5263   -3.0000   -0.0000 C   0  0  0  0  0  0  0  0  0  0  0  0
   10.3923   -3.5000   -0.0000 C   0  0  0  0  0  0  0  0  0  0  0  0
   10.3923   -4.5000   -0.0000 C   0  0  0  0  0  0  0  0  0  0  0  0
    9.5263   -5.0000   -0.0000 C   0  0  0  0  0  0  0  0  0  0  0  0
   11.2583   -5.0000   -0.0000 C   0  0  0  0  0  0  0  0  0  0  0  0
  1  2  1  0  0  0  0
  1  3  1  0  0  0  0
  2  4  2  0  0  0  0
  2  5  1  0  0  0  0
  3  6  1  0  0  0  0
  4  7  1  0  0  0  0
  4  8  1  0  0  0  0
  5  9  2  0  0  0  0
  5 10  1  0  0  0  0
  6 11  2  0  0  0  0
  7 12  1  0  0  0  0
  8 13  1  0  0  0  0
  8 14  2  0  0  0  0
  9 15  1  0  0  0  0
 10 16  2  0  0  0  0
 10 17  1  0  0  0  0
 11 18  1  0  0  0  0
 11 19  1  0  0  0  0
 13 20  2  0  0  0  0
 13 21  1  0  0  0  0
 15 22  1  0  0  0  0
 16 23  1  0  0  0  0
 17 24  2  0  0  0  0
 20 25  1  0  0  0  0
 21 26  2  0  0  0  0
 23 27  2  0  0  0  0
 25 28  2  0  0  0  0
 27 29  1  0  0  0  0
 28 30  1  0  0  0  0
 30 31  1  0  0  0  0
 31 32  1  0  0  0  0
 32 33  2  0  0  0  0
 33 34  1  0  0  0  0
 33 35  1  0  0  0  0
  9 14  1  0  0  0  0
 24 27  1  0  0  0  0
 26 28  1  0  0  0  0
M  END
>  <S/N>
333

>  <Compound ID>
C_349

>  <PubChem CID>
145969640

>  <Isomeric SMILES>
CC(=CCOC1=CC=C(C=C1)C2=CC(=C(C(=C2OC)OCC=C(C)C)C3=CC=C(C=C3)O)OC)C

>  <IC50 (�M)>
53.1

>  <pIC50>
4.27

$$$$
C_350
Actelion Java MolfileCreator 1.0

 26 29  0  0  0  0  0  0  0  0999 V2000
    8.7221   -5.1517   -0.0000 O   0  0  0  0  0  0  0  0  0  0  0  0
    7.2221   -5.1517   -0.0000 C   0  0  0  0  0  0  0  0  0  0  0  0
    6.4721   -3.8527   -0.0000 C   0  0  0  0  0  0  0  0  0  0  0  0
    6.4721   -6.4508   -0.0000 C   0  0  0  0  0  0  0  0  0  0  0  0
    4.9721   -3.8527   -0.0000 C   0  0  0  0  0  0  0  0  0  0  0  0
    7.2221   -2.5537   -0.0000 C   0  0  0  0  0  0  0  0  0  0  0  0
    4.9721   -6.4508   -0.0000 C   0  0  0  0  0  0  0  0  0  0  0  0
    7.2221   -7.7498   -0.0000 C   0  0  0  0  0  0  0  0  0  0  0  0
    4.2221   -5.1517   -0.0000 O   0  0  0  0  0  0  0  0  0  0  0  0
    4.2221   -2.5537   -0.0000 C   0  0  0  0  0  0  0  0  0  0  0  0
    8.7221   -2.5537   -0.0000 O   0  0  0  0  0  0  0  0  0  0  0  0
    6.4721   -1.2546   -0.0000 C   0  0  0  0  0  0  0  0  0  0  0  0
    4.2221   -7.7498   -0.0000 C   0  0  0  0  0  0  0  0  0  0  0  0
    6.4721   -9.0489   -0.0000 C   0  0  0  0  0  0  0  0  0  0  0  0
    4.9721   -1.2546   -0.0000 C   0  0  0  0  0  0  0  0  0  0  0  0
    2.7549   -2.2418   -0.0000 C   0  0  0  0  0  0  0  0  0  0  0  0
    2.7221   -7.7498   -0.0000 O   0  0  0  0  0  0  0  0  0  0  0  0
    4.9721   -9.0489   -0.0000 C   0  0  0  0  0  0  0  0  0  0  0  0
    3.9684   -0.1399   -0.0000 O   0  0  0  0  0  0  0  0  0  0  0  0
    2.5981   -0.7500   -0.0000 C   0  0  0  0  0  0  0  0  0  0  0  0
    1.2877   -2.5536   -0.0000 C   0  0  0  0  0  0  0  0  0  0  0  0
    2.2914   -3.6683   -0.0000 C   0  0  0  0  0  0  0  0  0  0  0  0
    1.9721   -9.0489   -0.0000 C   0  0  0  0  0  0  0  0  0  0  0  0
    4.2221  -10.3479   -0.0000 O   0  0  0  0  0  0  0  0  0  0  0  0
    1.2990   -0.0000   -0.0000 C   0  0  0  0  0  0  0  0  0  0  0  0
    0.0000   -0.7500   -0.0000 O   0  0  0  0  0  0  0  0  0  0  0  0
  1  2  2  0  0  0  0
  2  3  1  0  0  0  0
  2  4  1  0  0  0  0
  3  5  2  0  0  0  0
  3  6  1  0  0  0  0
  4  7  2  0  0  0  0
  4  8  1  0  0  0  0
  5  9  1  0  0  0  0
  5 10  1  0  0  0  0
  6 11  1  0  0  0  0
  6 12  2  0  0  0  0
  7 13  1  0  0  0  0
  8 14  2  0  0  0  0
 10 15  2  0  0  0  0
 10 16  1  0  0  0  0
 13 17  1  0  0  0  0
 13 18  2  0  0  0  0
 15 19  1  0  0  0  0
 16 20  1  0  0  0  0
 16 21  1  0  0  0  0
 16 22  1  0  0  0  0
 17 23  1  0  0  0  0
 18 24  1  0  0  0  0
 20 25  1  6  0  0  0
 25 26  1  0  0  0  0
  7  9  1  0  0  0  0
 12 15  1  0  0  0  0
 14 18  1  0  0  0  0
 19 20  1  0  0  0  0
M  END
>  <S/N>
334

>  <Compound ID>
C_350

>  <PubChem CID>
145969860

>  <Isomeric SMILES>
CC1(C(OC2=C1C3=C(C(=C2)O)C(=O)C4=C(O3)C(=C(C=C4)O)OC)CO)C

>  <IC50 (�M)>
72.7

>  <pIC50>
4.14

$$$$
C_351
Actelion Java MolfileCreator 1.0

 28 30  0  0  0  0  0  0  0  0999 V2000
    2.5981   -0.0000   -0.0000 O   0  0  0  0  0  0  0  0  0  0  0  0
    3.4641   -0.5000   -0.0000 C   0  0  0  0  0  0  0  0  0  0  0  0
    1.7321   -0.5000   -0.0000 C   0  0  0  0  0  0  0  0  0  0  0  0
    3.4641   -1.5000   -0.0000 C   0  0  0  0  0  0  0  0  0  0  0  0
    4.3301   -0.0000   -0.0000 C   0  0  0  0  0  0  0  0  0  0  0  0
    0.8660   -0.0000   -0.0000 C   0  0  0  0  0  0  0  0  0  0  0  0
    2.5981   -2.0000   -0.0000 O   0  0  0  0  0  0  0  0  0  0  0  0
    4.3301   -2.0000   -0.0000 C   0  0  0  0  0  0  0  0  0  0  0  0
    5.1962   -0.5000   -0.0000 C   0  0  0  0  0  0  0  0  0  0  0  0
    4.3301    1.0000   -0.0000 C   0  0  0  0  0  0  0  0  0  0  0  0
    0.0000   -0.5000   -0.0000 C   0  0  0  0  0  0  0  0  0  0  0  0
    2.5981   -3.0000   -0.0000 C   0  0  0  0  0  0  0  0  0  0  0  0
    4.3301   -3.0000   -0.0000 C   0  0  0  0  0  0  0  0  0  0  0  0
    5.1962   -1.5000   -0.0000 C   0  0  0  0  0  0  0  0  0  0  0  0
    6.0622   -0.0000   -0.0000 O   0  0  0  0  0  0  0  0  0  0  0  0
    5.1962    1.5000   -0.0000 C   0  0  0  0  0  0  0  0  0  0  0  0
    3.4641    1.5000   -0.0000 C   0  0  0  0  0  0  0  0  0  0  0  0
    3.4641   -3.5000   -0.0000 C   0  0  0  0  0  0  0  0  0  0  0  0
    5.1962   -3.5000   -0.0000 C   0  0  0  0  0  0  0  0  0  0  0  0
    6.0622    1.0000   -0.0000 C   0  0  0  0  0  0  0  0  0  0  0  0
    5.1962    2.5000   -0.0000 C   0  0  0  0  0  0  0  0  0  0  0  0
    3.4641    2.5000   -0.0000 C   0  0  0  0  0  0  0  0  0  0  0  0
    3.4641   -4.5000   -0.0000 C   0  0  0  0  0  0  0  0  0  0  0  0
    5.1962   -4.5000   -0.0000 C   0  0  0  0  0  0  0  0  0  0  0  0
    4.3301    3.0000   -0.0000 C   0  0  0  0  0  0  0  0  0  0  0  0
    4.3301   -5.0000   -0.0000 C   0  0  0  0  0  0  0  0  0  0  0  0
    4.3301    4.0000   -0.0000 O   0  0  0  0  0  0  0  0  0  0  0  0
    4.3301   -6.0000   -0.0000 O   0  0  0  0  0  0  0  0  0  0  0  0
  1  2  1  0  0  0  0
  1  3  1  0  0  0  0
  2  4  2  0  0  0  0
  2  5  1  0  0  0  0
  3  6  1  0  0  0  0
  4  7  1  0  0  0  0
  4  8  1  0  0  0  0
  5  9  2  0  0  0  0
  5 10  1  0  0  0  0
  6 11  1  0  0  0  0
  7 12  1  0  0  0  0
  8 13  1  0  0  0  0
  8 14  2  0  0  0  0
  9 15  1  0  0  0  0
 10 16  2  0  0  0  0
 10 17  1  0  0  0  0
 13 18  2  0  0  0  0
 13 19  1  0  0  0  0
 15 20  1  0  0  0  0
 16 21  1  0  0  0  0
 17 22  2  0  0  0  0
 18 23  1  0  0  0  0
 19 24  2  0  0  0  0
 21 25  2  0  0  0  0
 23 26  2  0  0  0  0
 25 27  1  0  0  0  0
 26 28  1  0  0  0  0
  9 14  1  0  0  0  0
 22 25  1  0  0  0  0
 24 26  1  0  0  0  0
M  END
>  <S/N>
335

>  <Compound ID>
C_351

>  <PubChem CID>
145970308

>  <Isomeric SMILES>
CCCOC1=C(C(=CC(=C1C2=CC=C(C=C2)O)OC)C3=CC=C(C=C3)O)OC

>  <IC50 (�M)>
19.3

>  <pIC50>
4.71

$$$$
C_352
Actelion Java MolfileCreator 1.0

 28 30  0  0  0  0  0  0  0  0999 V2000
    3.4641   -0.5000   -0.0000 Br  0  0  0  0  0  0  0  0  0  0  0  0
    2.5981   -0.0000   -0.0000 C   0  0  0  0  0  0  0  0  0  0  0  0
    1.7321   -0.5000   -0.0000 C   0  0  0  0  0  0  0  0  0  0  0  0
    0.8660   -0.0000   -0.0000 O   0  0  0  0  0  0  0  0  0  0  0  0
    0.0000   -0.5000   -0.0000 C   0  0  0  0  0  0  0  0  0  0  0  0
   -0.8660    0.0000   -0.0000 C   0  0  0  0  0  0  0  0  0  0  0  0
   -0.0000   -1.5000   -0.0000 C   0  0  0  0  0  0  0  0  0  0  0  0
   -0.8660    1.0000   -0.0000 O   0  0  0  0  0  0  0  0  0  0  0  0
   -1.7321   -0.5000   -0.0000 C   0  0  0  0  0  0  0  0  0  0  0  0
   -0.8660   -2.0000   -0.0000 C   0  0  0  0  0  0  0  0  0  0  0  0
    0.8660   -2.0000   -0.0000 C   0  0  0  0  0  0  0  0  0  0  0  0
   -1.7321    1.5000   -0.0000 C   0  0  0  0  0  0  0  0  0  0  0  0
   -2.5981    0.0000   -0.0000 C   0  0  0  0  0  0  0  0  0  0  0  0
   -1.7321   -1.5000   -0.0000 C   0  0  0  0  0  0  0  0  0  0  0  0
   -0.8660   -3.0000   -0.0000 O   0  0  0  0  0  0  0  0  0  0  0  0
    0.8660   -3.0000   -0.0000 C   0  0  0  0  0  0  0  0  0  0  0  0
    1.7321   -1.5000   -0.0000 C   0  0  0  0  0  0  0  0  0  0  0  0
   -2.5981    1.0000   -0.0000 C   0  0  0  0  0  0  0  0  0  0  0  0
   -3.4641   -0.5000   -0.0000 C   0  0  0  0  0  0  0  0  0  0  0  0
   -0.0000   -3.5000   -0.0000 C   0  0  0  0  0  0  0  0  0  0  0  0
    1.7321   -3.5000   -0.0000 C   0  0  0  0  0  0  0  0  0  0  0  0
    2.5981   -2.0000   -0.0000 C   0  0  0  0  0  0  0  0  0  0  0  0
   -3.4641    1.5000   -0.0000 C   0  0  0  0  0  0  0  0  0  0  0  0
   -4.3301    0.0000   -0.0000 C   0  0  0  0  0  0  0  0  0  0  0  0
    2.5981   -3.0000   -0.0000 C   0  0  0  0  0  0  0  0  0  0  0  0
   -4.3301    1.0000   -0.0000 C   0  0  0  0  0  0  0  0  0  0  0  0
    3.4641   -3.5000   -0.0000 O   0  0  0  0  0  0  0  0  0  0  0  0
   -5.1962    1.5000   -0.0000 O   0  0  0  0  0  0  0  0  0  0  0  0
  1  2  1  0  0  0  0
  2  3  1  0  0  0  0
  3  4  1  0  0  0  0
  4  5  1  0  0  0  0
  5  6  2  0  0  0  0
  5  7  1  0  0  0  0
  6  8  1  0  0  0  0
  6  9  1  0  0  0  0
  7 10  2  0  0  0  0
  7 11  1  0  0  0  0
  8 12  1  0  0  0  0
  9 13  1  0  0  0  0
  9 14  2  0  0  0  0
 10 15  1  0  0  0  0
 11 16  2  0  0  0  0
 11 17  1  0  0  0  0
 13 18  2  0  0  0  0
 13 19  1  0  0  0  0
 15 20  1  0  0  0  0
 16 21  1  0  0  0  0
 17 22  2  0  0  0  0
 18 23  1  0  0  0  0
 19 24  2  0  0  0  0
 21 25  2  0  0  0  0
 23 26  2  0  0  0  0
 25 27  1  0  0  0  0
 26 28  1  0  0  0  0
 10 14  1  0  0  0  0
 22 25  1  0  0  0  0
 24 26  1  0  0  0  0
M  END
>  <S/N>
336

>  <Compound ID>
C_352

>  <PubChem CID>
145972163

>  <Isomeric SMILES>
COC1=C(C(=C(C(=C1)C2=CC=C(C=C2)O)OC)OCCBr)C3=CC=C(C=C3)O

>  <IC50 (�M)>
18.8

>  <pIC50>
4.73

$$$$
C_353
Actelion Java MolfileCreator 1.0

 28 30  0  0  1  0  0  0  0  0999 V2000
    9.4344   -3.2455   -0.0000 O   0  0  0  0  0  0  0  0  0  0  0  0
   10.5491   -2.2418   -0.0000 C   0  0  0  0  0  0  0  0  0  0  0  0
   12.0163   -2.5537   -0.0000 O   0  0  0  0  0  0  0  0  0  0  0  0
   10.3923   -0.7500   -0.0000 C   0  0  0  0  0  0  0  0  0  0  0  0
   12.7663   -1.2546   -0.0000 C   0  0  0  0  0  0  0  0  0  0  0  0
   11.7626   -0.1399   -0.0000 C   0  0  0  0  0  0  0  0  0  0  0  0
    9.0933   -0.0000   -0.0000 C   0  0  0  0  0  0  0  0  0  0  0  0
   14.2581   -1.0978   -0.0000 O   0  0  0  0  0  0  0  0  0  0  0  0
   12.0745    1.3273   -0.0000 C   0  0  0  0  0  0  0  0  0  0  0  0
    7.7942   -0.7500   -0.0000 C   0  0  0  0  0  0  0  0  0  0  0  0
   14.8682    0.2725   -0.0000 C   0  0  0  0  0  0  0  0  0  0  0  0
   13.5011    1.7909   -0.0000 C   0  0  0  0  0  0  0  0  0  0  0  0
   10.9598    2.3310   -0.0000 C   0  0  0  0  0  0  0  0  0  0  0  0
    6.4952   -0.0000   -0.0000 C   0  0  0  0  0  0  0  0  0  0  0  0
    7.7942   -2.2500   -0.0000 C   0  0  0  0  0  0  0  0  0  0  0  0
   13.8129    3.2581   -0.0000 C   0  0  0  0  0  0  0  0  0  0  0  0
   11.2716    3.7982   -0.0000 C   0  0  0  0  0  0  0  0  0  0  0  0
    5.1962   -0.7500   -0.0000 C   0  0  0  0  0  0  0  0  0  0  0  0
    6.4952   -3.0000   -0.0000 C   0  0  0  0  0  0  0  0  0  0  0  0
   12.6982    4.2618   -0.0000 C   0  0  0  0  0  0  0  0  0  0  0  0
    5.1962   -2.2500   -0.0000 C   0  0  0  0  0  0  0  0  0  0  0  0
    3.8971   -0.0000   -0.0000 C   0  0  0  0  0  0  0  0  0  0  0  0
   13.0101    5.7290   -0.0000 O   0  0  0  0  0  0  0  0  0  0  0  0
    3.8971   -3.0000   -0.0000 O   0  0  0  0  0  0  0  0  0  0  0  0
    2.5981   -0.7500   -0.0000 C   0  0  0  0  0  0  0  0  0  0  0  0
    1.2990   -0.0000   -0.0000 C   0  0  0  0  0  0  0  0  0  0  0  0
    1.2990    1.5000   -0.0000 C   0  0  0  0  0  0  0  0  0  0  0  0
    0.0000   -0.7500   -0.0000 C   0  0  0  0  0  0  0  0  0  0  0  0
  1  2  2  0  0  0  0
  2  3  1  0  0  0  0
  2  4  1  0  0  0  0
  3  5  1  0  0  0  0
  4  6  2  0  0  0  0
  4  7  1  0  0  0  0
  5  8  1  1  0  0  0
  6  9  1  0  0  0  0
  7 10  1  0  0  0  0
  8 11  1  0  0  0  0
  9 12  2  0  0  0  0
  9 13  1  0  0  0  0
 10 14  2  0  0  0  0
 10 15  1  0  0  0  0
 12 16  1  0  0  0  0
 13 17  2  0  0  0  0
 14 18  1  0  0  0  0
 15 19  2  0  0  0  0
 16 20  2  0  0  0  0
 18 21  2  0  0  0  0
 18 22  1  0  0  0  0
 20 23  1  0  0  0  0
 21 24  1  0  0  0  0
 22 25  1  0  0  0  0
 25 26  2  0  0  0  0
 26 27  1  0  0  0  0
 26 28  1  0  0  0  0
  5  6  1  0  0  0  0
 17 20  1  0  0  0  0
 19 21  1  0  0  0  0
M  END
>  <S/N>
337

>  <Compound ID>
C_353

>  <PubChem CID>
145972609

>  <Isomeric SMILES>
CC(=CCC1=C(C=CC(=C1)CC2=C([C@H](OC2=O)OC)C3=CC=C(C=C3)O)O)C

>  <IC50 (�M)>
8.65

>  <pIC50>
5.06

$$$$
C_354
Actelion Java MolfileCreator 1.0

 22 24  0  0  0  0  0  0  0  0999 V2000
    5.1962   -1.5000   -0.0000 O   0  0  0  0  0  0  0  0  0  0  0  0
    5.1962   -0.5000   -0.0000 C   0  0  0  0  0  0  0  0  0  0  0  0
    6.0622   -0.0000   -0.0000 O   0  0  0  0  0  0  0  0  0  0  0  0
    4.3301   -0.0000   -0.0000 C   0  0  0  0  0  0  0  0  0  0  0  0
    6.0622    1.0000   -0.0000 C   0  0  0  0  0  0  0  0  0  0  0  0
    3.4641   -0.5000   -0.0000 C   0  0  0  0  0  0  0  0  0  0  0  0
    4.3301    1.0000   -0.0000 C   0  0  0  0  0  0  0  0  0  0  0  0
    5.1962    1.5000   -0.0000 C   0  0  0  0  0  0  0  0  0  0  0  0
    6.9282    1.5000   -0.0000 C   0  0  0  0  0  0  0  0  0  0  0  0
    3.4641   -1.5000   -0.0000 O   0  0  0  0  0  0  0  0  0  0  0  0
    2.5981   -0.0000   -0.0000 N   0  0  0  0  0  0  0  0  0  0  0  0
    5.1962    2.5000   -0.0000 C   0  0  0  0  0  0  0  0  0  0  0  0
    6.9282    2.5000   -0.0000 C   0  0  0  0  0  0  0  0  0  0  0  0
    1.7321   -0.5000   -0.0000 N   0  0  0  0  0  0  0  0  0  0  0  0
    6.0622    3.0000   -0.0000 C   0  0  0  0  0  0  0  0  0  0  0  0
    0.8660   -0.0000   -0.0000 C   0  0  0  0  0  0  0  0  0  0  0  0
    0.0000   -0.5000   -0.0000 C   0  0  0  0  0  0  0  0  0  0  0  0
   -0.8660    0.0000   -0.0000 C   0  0  0  0  0  0  0  0  0  0  0  0
   -0.0000   -1.5000   -0.0000 C   0  0  0  0  0  0  0  0  0  0  0  0
   -1.7321   -0.5000   -0.0000 C   0  0  0  0  0  0  0  0  0  0  0  0
   -0.8660   -2.0000   -0.0000 C   0  0  0  0  0  0  0  0  0  0  0  0
   -1.7321   -1.5000   -0.0000 N   0  0  0  0  0  0  0  0  0  0  0  0
  1  2  2  0  0  0  0
  2  3  1  0  0  0  0
  2  4  1  0  0  0  0
  3  5  1  0  0  0  0
  4  6  1  0  0  0  0
  4  7  2  0  0  0  0
  5  8  2  0  0  0  0
  5  9  1  0  0  0  0
  6 10  2  0  0  0  0
  6 11  1  0  0  0  0
  8 12  1  0  0  0  0
  9 13  2  0  0  0  0
 11 14  1  0  0  0  0
 12 15  2  0  0  0  0
 14 16  2  0  0  0  0
 16 17  1  0  0  0  0
 17 18  2  0  0  0  0
 17 19  1  0  0  0  0
 18 20  1  0  0  0  0
 19 21  2  0  0  0  0
 20 22  2  0  0  0  0
  7  8  1  0  0  0  0
 13 15  1  0  0  0  0
 21 22  1  0  0  0  0
M  END
>  <S/N>
338

>  <Compound ID>
C_354

>  <PubChem CID>
145973828

>  <Isomeric SMILES>
C1=CC=C2C(=C1)C=C(C(=O)O2)C(=O)N/N=C/C3=CC=NC=C3

>  <IC50 (�M)>
1.1

>  <pIC50>
5.96

$$$$
C_355
Actelion Java MolfileCreator 1.0

 22 23  0  0  0  0  0  0  0  0999 V2000
    7.7942   -0.0000   -0.0000 Cl  0  0  0  0  0  0  0  0  0  0  0  0
    6.9282   -0.5000   -0.0000 C   0  0  0  0  0  0  0  0  0  0  0  0
    6.0622   -0.0000   -0.0000 C   0  0  0  0  0  0  0  0  0  0  0  0
    6.9282   -1.5000   -0.0000 C   0  0  0  0  0  0  0  0  0  0  0  0
    5.1962   -0.5000   -0.0000 C   0  0  0  0  0  0  0  0  0  0  0  0
    6.0622   -2.0000   -0.0000 C   0  0  0  0  0  0  0  0  0  0  0  0
    5.1962   -1.5000   -0.0000 C   0  0  0  0  0  0  0  0  0  0  0  0
    4.3301   -0.0000   -0.0000 C   0  0  0  0  0  0  0  0  0  0  0  0
    4.3301   -2.0000   -0.0000 O   0  0  0  0  0  0  0  0  0  0  0  0
    4.3301    1.0000   -0.0000 O   0  0  0  0  0  0  0  0  0  0  0  0
    3.4641   -0.5000   -0.0000 C   0  0  0  0  0  0  0  0  0  0  0  0
    2.5981   -0.0000   -0.0000 C   0  0  0  0  0  0  0  0  0  0  0  0
    2.5981    1.0000   -0.0000 O   0  0  0  0  0  0  0  0  0  0  0  0
    1.7321   -0.5000   -0.0000 C   0  0  0  0  0  0  0  0  0  0  0  0
    0.8660   -0.0000   -0.0000 C   0  0  0  0  0  0  0  0  0  0  0  0
    0.0000   -0.5000   -0.0000 C   0  0  0  0  0  0  0  0  0  0  0  0
   -0.8660    0.0000   -0.0000 C   0  0  0  0  0  0  0  0  0  0  0  0
   -0.0000   -1.5000   -0.0000 C   0  0  0  0  0  0  0  0  0  0  0  0
   -1.7321   -0.5000   -0.0000 C   0  0  0  0  0  0  0  0  0  0  0  0
   -0.8660   -2.0000   -0.0000 C   0  0  0  0  0  0  0  0  0  0  0  0
   -2.5981    0.0000   -0.0000 O   0  0  0  0  0  0  0  0  0  0  0  0
   -1.7321   -1.5000   -0.0000 C   0  0  0  0  0  0  0  0  0  0  0  0
  1  2  1  0  0  0  0
  2  3  2  0  0  0  0
  2  4  1  0  0  0  0
  3  5  1  0  0  0  0
  4  6  2  0  0  0  0
  5  7  2  0  0  0  0
  5  8  1  0  0  0  0
  7  9  1  0  0  0  0
  8 10  1  0  0  0  0
  8 11  2  0  0  0  0
 11 12  1  0  0  0  0
 12 13  2  0  0  0  0
 12 14  1  0  0  0  0
 14 15  2  0  0  0  0
 15 16  1  0  0  0  0
 16 17  2  0  0  0  0
 16 18  1  0  0  0  0
 17 19  1  0  0  0  0
 18 20  2  0  0  0  0
 19 21  1  0  0  0  0
 19 22  2  0  0  0  0
  6  7  1  0  0  0  0
 20 22  1  0  0  0  0
M  END
>  <S/N>
339

>  <Compound ID>
C_355

>  <PubChem CID>
145973915

>  <Isomeric SMILES>
C1=CC(=CC(=C1)O)/C=C/C(=O)/C=C(/C2=C(C=CC(=C2)Cl)O)\O

>  <IC50 (�M)>
36.4

>  <pIC50>
4.44

$$$$
C_356
Actelion Java MolfileCreator 1.0

 31 33  0  0  0  0  0  0  0  0999 V2000
    0.8660   -0.0000   -0.0000 O   0  0  0  0  0  0  0  0  0  0  0  0
    1.7321   -0.5000   -0.0000 C   0  0  0  0  0  0  0  0  0  0  0  0
    0.0000   -0.5000   -0.0000 C   0  0  0  0  0  0  0  0  0  0  0  0
    1.7321   -1.5000   -0.0000 C   0  0  0  0  0  0  0  0  0  0  0  0
    2.5981   -0.0000   -0.0000 C   0  0  0  0  0  0  0  0  0  0  0  0
   -0.0000   -1.5000   -0.0000 C   0  0  0  0  0  0  0  0  0  0  0  0
    0.8660   -2.0000   -0.0000 O   0  0  0  0  0  0  0  0  0  0  0  0
    2.5981   -2.0000   -0.0000 C   0  0  0  0  0  0  0  0  0  0  0  0
    3.4641   -0.5000   -0.0000 C   0  0  0  0  0  0  0  0  0  0  0  0
    2.5981    1.0000   -0.0000 C   0  0  0  0  0  0  0  0  0  0  0  0
   -0.0000   -2.5000   -0.0000 C   0  0  0  0  0  0  0  0  0  0  0  0
    0.8660   -3.0000   -0.0000 C   0  0  0  0  0  0  0  0  0  0  0  0
    2.5981   -3.0000   -0.0000 C   0  0  0  0  0  0  0  0  0  0  0  0
    3.4641   -1.5000   -0.0000 C   0  0  0  0  0  0  0  0  0  0  0  0
    4.3301   -0.0000   -0.0000 O   0  0  0  0  0  0  0  0  0  0  0  0
    3.4641    1.5000   -0.0000 C   0  0  0  0  0  0  0  0  0  0  0  0
    1.7321    1.5000   -0.0000 C   0  0  0  0  0  0  0  0  0  0  0  0
    1.7321   -3.5000   -0.0000 C   0  0  0  0  0  0  0  0  0  0  0  0
    3.4641   -3.5000   -0.0000 C   0  0  0  0  0  0  0  0  0  0  0  0
    4.3301    1.0000   -0.0000 C   0  0  0  0  0  0  0  0  0  0  0  0
    3.4641    2.5000   -0.0000 C   0  0  0  0  0  0  0  0  0  0  0  0
    1.7321    2.5000   -0.0000 C   0  0  0  0  0  0  0  0  0  0  0  0
    1.7321   -4.5000   -0.0000 C   0  0  0  0  0  0  0  0  0  0  0  0
    3.4641   -4.5000   -0.0000 C   0  0  0  0  0  0  0  0  0  0  0  0
    2.5981    3.0000   -0.0000 C   0  0  0  0  0  0  0  0  0  0  0  0
    2.5981   -5.0000   -0.0000 C   0  0  0  0  0  0  0  0  0  0  0  0
    2.5981    4.0000   -0.0000 O   0  0  0  0  0  0  0  0  0  0  0  0
    2.5981   -6.0000   -0.0000 O   0  0  0  0  0  0  0  0  0  0  0  0
    3.4641   -6.5000   -0.0000 C   0  0  0  0  0  0  0  0  0  0  0  0
    4.3301   -6.0000   -0.0000 C   0  0  0  0  0  0  0  0  0  0  0  0
    5.1962   -5.5000   -0.0000 C   0  0  0  0  0  0  0  0  0  0  0  0
  1  2  1  0  0  0  0
  1  3  1  0  0  0  0
  2  4  2  0  0  0  0
  2  5  1  0  0  0  0
  3  6  1  0  0  0  0
  4  7  1  0  0  0  0
  4  8  1  0  0  0  0
  5  9  2  0  0  0  0
  5 10  1  0  0  0  0
  6 11  3  0  0  0  0
  7 12  1  0  0  0  0
  8 13  1  0  0  0  0
  8 14  2  0  0  0  0
  9 15  1  0  0  0  0
 10 16  2  0  0  0  0
 10 17  1  0  0  0  0
 13 18  2  0  0  0  0
 13 19  1  0  0  0  0
 15 20  1  0  0  0  0
 16 21  1  0  0  0  0
 17 22  2  0  0  0  0
 18 23  1  0  0  0  0
 19 24  2  0  0  0  0
 21 25  2  0  0  0  0
 23 26  2  0  0  0  0
 25 27  1  0  0  0  0
 26 28  1  0  0  0  0
 28 29  1  0  0  0  0
 29 30  1  0  0  0  0
 30 31  3  0  0  0  0
  9 14  1  0  0  0  0
 22 25  1  0  0  0  0
 24 26  1  0  0  0  0
M  END
>  <S/N>
340

>  <Compound ID>
C_356

>  <PubChem CID>
145973934

>  <Isomeric SMILES>
COC1=C(C(=C(C(=C1)C2=CC=C(C=C2)OCC#C)OC)OCC#C)C3=CC=C(C=C3)O

>  <IC50 (�M)>
20.1

>  <pIC50>
4.7

$$$$
C_357
Actelion Java MolfileCreator 1.0

 31 33  0  0  0  0  0  0  0  0999 V2000
    2.5981   -0.0000   -0.0000 O   0  0  0  0  0  0  0  0  0  0  0  0
    3.4641   -0.5000   -0.0000 C   0  0  0  0  0  0  0  0  0  0  0  0
    1.7321   -0.5000   -0.0000 C   0  0  0  0  0  0  0  0  0  0  0  0
    3.4641   -1.5000   -0.0000 C   0  0  0  0  0  0  0  0  0  0  0  0
    4.3301   -0.0000   -0.0000 C   0  0  0  0  0  0  0  0  0  0  0  0
    0.8660   -0.0000   -0.0000 C   0  0  0  0  0  0  0  0  0  0  0  0
    2.5981   -2.0000   -0.0000 O   0  0  0  0  0  0  0  0  0  0  0  0
    4.3301   -2.0000   -0.0000 C   0  0  0  0  0  0  0  0  0  0  0  0
    5.1962   -0.5000   -0.0000 C   0  0  0  0  0  0  0  0  0  0  0  0
    4.3301    1.0000   -0.0000 C   0  0  0  0  0  0  0  0  0  0  0  0
    0.0000   -0.5000   -0.0000 C   0  0  0  0  0  0  0  0  0  0  0  0
    2.5981   -3.0000   -0.0000 C   0  0  0  0  0  0  0  0  0  0  0  0
    4.3301   -3.0000   -0.0000 C   0  0  0  0  0  0  0  0  0  0  0  0
    5.1962   -1.5000   -0.0000 C   0  0  0  0  0  0  0  0  0  0  0  0
    6.0622   -0.0000   -0.0000 O   0  0  0  0  0  0  0  0  0  0  0  0
    5.1962    1.5000   -0.0000 C   0  0  0  0  0  0  0  0  0  0  0  0
    3.4641    1.5000   -0.0000 C   0  0  0  0  0  0  0  0  0  0  0  0
    3.4641   -3.5000   -0.0000 C   0  0  0  0  0  0  0  0  0  0  0  0
    5.1962   -3.5000   -0.0000 C   0  0  0  0  0  0  0  0  0  0  0  0
    6.0622    1.0000   -0.0000 C   0  0  0  0  0  0  0  0  0  0  0  0
    5.1962    2.5000   -0.0000 C   0  0  0  0  0  0  0  0  0  0  0  0
    3.4641    2.5000   -0.0000 C   0  0  0  0  0  0  0  0  0  0  0  0
    3.4641   -4.5000   -0.0000 C   0  0  0  0  0  0  0  0  0  0  0  0
    5.1962   -4.5000   -0.0000 C   0  0  0  0  0  0  0  0  0  0  0  0
    4.3301    3.0000   -0.0000 C   0  0  0  0  0  0  0  0  0  0  0  0
    4.3301   -5.0000   -0.0000 C   0  0  0  0  0  0  0  0  0  0  0  0
    4.3301    4.0000   -0.0000 O   0  0  0  0  0  0  0  0  0  0  0  0
    4.3301   -6.0000   -0.0000 O   0  0  0  0  0  0  0  0  0  0  0  0
    5.1962   -6.5000   -0.0000 C   0  0  0  0  0  0  0  0  0  0  0  0
    5.1962   -7.5000   -0.0000 C   0  0  0  0  0  0  0  0  0  0  0  0
    6.0622   -8.0000   -0.0000 C   0  0  0  0  0  0  0  0  0  0  0  0
  1  2  1  0  0  0  0
  1  3  1  0  0  0  0
  2  4  2  0  0  0  0
  2  5  1  0  0  0  0
  3  6  1  0  0  0  0
  4  7  1  0  0  0  0
  4  8  1  0  0  0  0
  5  9  2  0  0  0  0
  5 10  1  0  0  0  0
  6 11  1  0  0  0  0
  7 12  1  0  0  0  0
  8 13  1  0  0  0  0
  8 14  2  0  0  0  0
  9 15  1  0  0  0  0
 10 16  2  0  0  0  0
 10 17  1  0  0  0  0
 13 18  2  0  0  0  0
 13 19  1  0  0  0  0
 15 20  1  0  0  0  0
 16 21  1  0  0  0  0
 17 22  2  0  0  0  0
 18 23  1  0  0  0  0
 19 24  2  0  0  0  0
 21 25  2  0  0  0  0
 23 26  2  0  0  0  0
 25 27  1  0  0  0  0
 26 28  1  0  0  0  0
 28 29  1  0  0  0  0
 29 30  1  0  0  0  0
 30 31  1  0  0  0  0
  9 14  1  0  0  0  0
 22 25  1  0  0  0  0
 24 26  1  0  0  0  0
M  END
>  <S/N>
341

>  <Compound ID>
C_357

>  <PubChem CID>
145974223

>  <Isomeric SMILES>
CCCOC1=CC=C(C=C1)C2=CC(=C(C(=C2OC)OCCC)C3=CC=C(C=C3)O)OC

>  <IC50 (�M)>
8.69

>  <pIC50>
5.06

$$$$
C_358
Actelion Java MolfileCreator 1.0

 28 30  0  0  0  0  0  0  0  0999 V2000
    2.5981   -0.0000   -0.0000 O   0  0  0  0  0  0  0  0  0  0  0  0
    3.4641   -0.5000   -0.0000 C   0  0  0  0  0  0  0  0  0  0  0  0
    1.7321   -0.5000   -0.0000 C   0  0  0  0  0  0  0  0  0  0  0  0
    3.4641   -1.5000   -0.0000 C   0  0  0  0  0  0  0  0  0  0  0  0
    4.3301   -0.0000   -0.0000 C   0  0  0  0  0  0  0  0  0  0  0  0
    0.8660   -0.0000   -0.0000 C   0  0  0  0  0  0  0  0  0  0  0  0
    4.3301   -2.0000   -0.0000 C   0  0  0  0  0  0  0  0  0  0  0  0
    5.1962   -0.5000   -0.0000 C   0  0  0  0  0  0  0  0  0  0  0  0
    0.0000   -0.5000   -0.0000 C   0  0  0  0  0  0  0  0  0  0  0  0
    5.1962   -1.5000   -0.0000 C   0  0  0  0  0  0  0  0  0  0  0  0
    6.0622   -2.0000   -0.0000 C   0  0  0  0  0  0  0  0  0  0  0  0
    6.0622   -3.0000   -0.0000 C   0  0  0  0  0  0  0  0  0  0  0  0
    6.9282   -1.5000   -0.0000 C   0  0  0  0  0  0  0  0  0  0  0  0
    5.1962   -3.5000   -0.0000 O   0  0  0  0  0  0  0  0  0  0  0  0
    6.9282   -3.5000   -0.0000 C   0  0  0  0  0  0  0  0  0  0  0  0
    7.7942   -2.0000   -0.0000 C   0  0  0  0  0  0  0  0  0  0  0  0
    5.1962   -4.5000   -0.0000 C   0  0  0  0  0  0  0  0  0  0  0  0
    6.9282   -4.5000   -0.0000 O   0  0  0  0  0  0  0  0  0  0  0  0
    7.7942   -3.0000   -0.0000 C   0  0  0  0  0  0  0  0  0  0  0  0
    8.6603   -1.5000   -0.0000 O   0  0  0  0  0  0  0  0  0  0  0  0
    8.6603   -3.5000   -0.0000 C   0  0  0  0  0  0  0  0  0  0  0  0
    8.6603   -0.5000   -0.0000 C   0  0  0  0  0  0  0  0  0  0  0  0
    8.6603   -4.5000   -0.0000 C   0  0  0  0  0  0  0  0  0  0  0  0
    9.5263   -3.0000   -0.0000 C   0  0  0  0  0  0  0  0  0  0  0  0
    9.5263   -5.0000   -0.0000 C   0  0  0  0  0  0  0  0  0  0  0  0
   10.3923   -3.5000   -0.0000 C   0  0  0  0  0  0  0  0  0  0  0  0
   10.3923   -4.5000   -0.0000 C   0  0  0  0  0  0  0  0  0  0  0  0
   11.2583   -5.0000   -0.0000 O   0  0  0  0  0  0  0  0  0  0  0  0
  1  2  1  0  0  0  0
  1  3  1  0  0  0  0
  2  4  2  0  0  0  0
  2  5  1  0  0  0  0
  3  6  1  0  0  0  0
  4  7  1  0  0  0  0
  5  8  2  0  0  0  0
  6  9  2  0  0  0  0
  7 10  2  0  0  0  0
 10 11  1  0  0  0  0
 11 12  2  0  0  0  0
 11 13  1  0  0  0  0
 12 14  1  0  0  0  0
 12 15  1  0  0  0  0
 13 16  2  0  0  0  0
 14 17  1  0  0  0  0
 15 18  1  0  0  0  0
 15 19  2  0  0  0  0
 16 20  1  0  0  0  0
 19 21  1  0  0  0  0
 20 22  1  0  0  0  0
 21 23  2  0  0  0  0
 21 24  1  0  0  0  0
 23 25  1  0  0  0  0
 24 26  2  0  0  0  0
 25 27  2  0  0  0  0
 27 28  1  0  0  0  0
  8 10  1  0  0  0  0
 16 19  1  0  0  0  0
 26 27  1  0  0  0  0
M  END
>  <S/N>
342

>  <Compound ID>
C_358

>  <PubChem CID>
145974284

>  <Isomeric SMILES>
COC1=C(C(=C(C(=C1)C2=CC=C(C=C2)OCC=C)OC)O)C3=CC=C(C=C3)O

>  <IC50 (�M)>
26.5

>  <pIC50>
4.58

$$$$
C_359
Actelion Java MolfileCreator 1.0

 23 24  0  0  0  0  0  0  0  0999 V2000
    7.7942   -0.0000   -0.0000 Cl  0  0  0  0  0  0  0  0  0  0  0  0
    6.9282   -0.5000   -0.0000 C   0  0  0  0  0  0  0  0  0  0  0  0
    6.0622   -0.0000   -0.0000 C   0  0  0  0  0  0  0  0  0  0  0  0
    6.9282   -1.5000   -0.0000 C   0  0  0  0  0  0  0  0  0  0  0  0
    5.1962   -0.5000   -0.0000 C   0  0  0  0  0  0  0  0  0  0  0  0
    6.0622   -2.0000   -0.0000 C   0  0  0  0  0  0  0  0  0  0  0  0
    5.1962   -1.5000   -0.0000 C   0  0  0  0  0  0  0  0  0  0  0  0
    4.3301   -0.0000   -0.0000 C   0  0  0  0  0  0  0  0  0  0  0  0
    4.3301   -2.0000   -0.0000 O   0  0  0  0  0  0  0  0  0  0  0  0
    4.3301    1.0000   -0.0000 O   0  0  0  0  0  0  0  0  0  0  0  0
    3.4641   -0.5000   -0.0000 C   0  0  0  0  0  0  0  0  0  0  0  0
    2.5981   -0.0000   -0.0000 C   0  0  0  0  0  0  0  0  0  0  0  0
    2.5981    1.0000   -0.0000 O   0  0  0  0  0  0  0  0  0  0  0  0
    1.7321   -0.5000   -0.0000 C   0  0  0  0  0  0  0  0  0  0  0  0
    0.8660   -0.0000   -0.0000 C   0  0  0  0  0  0  0  0  0  0  0  0
    0.0000   -0.5000   -0.0000 C   0  0  0  0  0  0  0  0  0  0  0  0
   -0.8660    0.0000   -0.0000 C   0  0  0  0  0  0  0  0  0  0  0  0
   -0.0000   -1.5000   -0.0000 C   0  0  0  0  0  0  0  0  0  0  0  0
   -1.7321   -0.5000   -0.0000 C   0  0  0  0  0  0  0  0  0  0  0  0
   -0.8660   -2.0000   -0.0000 C   0  0  0  0  0  0  0  0  0  0  0  0
   -2.5981    0.0000   -0.0000 O   0  0  0  0  0  0  0  0  0  0  0  0
   -1.7321   -1.5000   -0.0000 C   0  0  0  0  0  0  0  0  0  0  0  0
   -2.5981   -2.0000   -0.0000 O   0  0  0  0  0  0  0  0  0  0  0  0
  1  2  1  0  0  0  0
  2  3  2  0  0  0  0
  2  4  1  0  0  0  0
  3  5  1  0  0  0  0
  4  6  2  0  0  0  0
  5  7  2  0  0  0  0
  5  8  1  0  0  0  0
  7  9  1  0  0  0  0
  8 10  1  0  0  0  0
  8 11  2  0  0  0  0
 11 12  1  0  0  0  0
 12 13  2  0  0  0  0
 12 14  1  0  0  0  0
 14 15  2  0  0  0  0
 15 16  1  0  0  0  0
 16 17  2  0  0  0  0
 16 18  1  0  0  0  0
 17 19  1  0  0  0  0
 18 20  2  0  0  0  0
 19 21  1  0  0  0  0
 19 22  2  0  0  0  0
 22 23  1  0  0  0  0
  6  7  1  0  0  0  0
 20 22  1  0  0  0  0
M  END
>  <S/N>
343

>  <Compound ID>
C_359

>  <PubChem CID>
145974668

>  <Isomeric SMILES>
C1=CC(=C(C=C1/C=C/C(=O)/C=C(/C2=C(C=CC(=C2)Cl)O)\O)O)O

>  <IC50 (�M)>
15.1

>  <pIC50>
4.82

$$$$
C_360
Actelion Java MolfileCreator 1.0

 22 23  0  0  0  0  0  0  0  0999 V2000
    2.5981    1.0000   -0.0000 O   0  0  0  0  0  0  0  0  0  0  0  0
    2.5981   -0.0000   -0.0000 C   0  0  0  0  0  0  0  0  0  0  0  0
    3.4641   -0.5000   -0.0000 C   0  0  0  0  0  0  0  0  0  0  0  0
    1.7321   -0.5000   -0.0000 C   0  0  0  0  0  0  0  0  0  0  0  0
    4.3301   -0.0000   -0.0000 C   0  0  0  0  0  0  0  0  0  0  0  0
    0.8660   -0.0000   -0.0000 C   0  0  0  0  0  0  0  0  0  0  0  0
    4.3301    1.0000   -0.0000 O   0  0  0  0  0  0  0  0  0  0  0  0
    5.1962   -0.5000   -0.0000 C   0  0  0  0  0  0  0  0  0  0  0  0
    0.0000   -0.5000   -0.0000 C   0  0  0  0  0  0  0  0  0  0  0  0
    6.0622    0.0000   -0.0000 C   0  0  0  0  0  0  0  0  0  0  0  0
    5.1962   -1.5000   -0.0000 C   0  0  0  0  0  0  0  0  0  0  0  0
   -0.8660    0.0000   -0.0000 C   0  0  0  0  0  0  0  0  0  0  0  0
   -0.0000   -1.5000   -0.0000 C   0  0  0  0  0  0  0  0  0  0  0  0
    6.0622    1.0000   -0.0000 O   0  0  0  0  0  0  0  0  0  0  0  0
    6.9282   -0.5000   -0.0000 C   0  0  0  0  0  0  0  0  0  0  0  0
    6.0622   -2.0000   -0.0000 C   0  0  0  0  0  0  0  0  0  0  0  0
   -0.8660    1.0000   -0.0000 O   0  0  0  0  0  0  0  0  0  0  0  0
   -1.7321   -0.5000   -0.0000 C   0  0  0  0  0  0  0  0  0  0  0  0
   -0.8660   -2.0000   -0.0000 C   0  0  0  0  0  0  0  0  0  0  0  0
    6.9282   -1.5000   -0.0000 C   0  0  0  0  0  0  0  0  0  0  0  0
   -1.7321   -1.5000   -0.0000 C   0  0  0  0  0  0  0  0  0  0  0  0
   -2.5981   -2.0000   -0.0000 O   0  0  0  0  0  0  0  0  0  0  0  0
  1  2  2  0  0  0  0
  2  3  1  0  0  0  0
  2  4  1  0  0  0  0
  3  5  2  0  0  0  0
  4  6  2  0  0  0  0
  5  7  1  0  0  0  0
  5  8  1  0  0  0  0
  6  9  1  0  0  0  0
  8 10  2  0  0  0  0
  8 11  1  0  0  0  0
  9 12  2  0  0  0  0
  9 13  1  0  0  0  0
 10 14  1  0  0  0  0
 10 15  1  0  0  0  0
 11 16  2  0  0  0  0
 12 17  1  0  0  0  0
 12 18  1  0  0  0  0
 13 19  2  0  0  0  0
 15 20  2  0  0  0  0
 18 21  2  0  0  0  0
 21 22  1  0  0  0  0
 16 20  1  0  0  0  0
 19 21  1  0  0  0  0
M  END
>  <S/N>
344

>  <Compound ID>
C_360

>  <PubChem CID>
145974739

>  <Isomeric SMILES>
C1=CC=C(C(=C1)/C(=C/C(=O)/C=C/C2=C(C=C(C=C2)O)O)/O)O

>  <IC50 (�M)>
40.7

>  <pIC50>
4.39

$$$$
C_361
Actelion Java MolfileCreator 1.0

 28 30  0  0  0  0  0  0  0  0999 V2000
    2.5981   -0.0000   -0.0000 O   0  0  0  0  0  0  0  0  0  0  0  0
    3.4641   -0.5000   -0.0000 C   0  0  0  0  0  0  0  0  0  0  0  0
    1.7321   -0.5000   -0.0000 C   0  0  0  0  0  0  0  0  0  0  0  0
    3.4641   -1.5000   -0.0000 C   0  0  0  0  0  0  0  0  0  0  0  0
    4.3301   -0.0000   -0.0000 C   0  0  0  0  0  0  0  0  0  0  0  0
    0.8660   -0.0000   -0.0000 C   0  0  0  0  0  0  0  0  0  0  0  0
    4.3301   -2.0000   -0.0000 C   0  0  0  0  0  0  0  0  0  0  0  0
    5.1962   -0.5000   -0.0000 C   0  0  0  0  0  0  0  0  0  0  0  0
    0.0000   -0.5000   -0.0000 C   0  0  0  0  0  0  0  0  0  0  0  0
    5.1962   -1.5000   -0.0000 C   0  0  0  0  0  0  0  0  0  0  0  0
    6.0622   -2.0000   -0.0000 C   0  0  0  0  0  0  0  0  0  0  0  0
    6.0622   -3.0000   -0.0000 C   0  0  0  0  0  0  0  0  0  0  0  0
    6.9282   -1.5000   -0.0000 C   0  0  0  0  0  0  0  0  0  0  0  0
    5.1962   -3.5000   -0.0000 O   0  0  0  0  0  0  0  0  0  0  0  0
    6.9282   -3.5000   -0.0000 C   0  0  0  0  0  0  0  0  0  0  0  0
    7.7942   -2.0000   -0.0000 C   0  0  0  0  0  0  0  0  0  0  0  0
    5.1962   -4.5000   -0.0000 C   0  0  0  0  0  0  0  0  0  0  0  0
    6.9282   -4.5000   -0.0000 O   0  0  0  0  0  0  0  0  0  0  0  0
    7.7942   -3.0000   -0.0000 C   0  0  0  0  0  0  0  0  0  0  0  0
    8.6603   -1.5000   -0.0000 O   0  0  0  0  0  0  0  0  0  0  0  0
    8.6603   -3.5000   -0.0000 C   0  0  0  0  0  0  0  0  0  0  0  0
    8.6603   -0.5000   -0.0000 C   0  0  0  0  0  0  0  0  0  0  0  0
    8.6603   -4.5000   -0.0000 C   0  0  0  0  0  0  0  0  0  0  0  0
    9.5263   -3.0000   -0.0000 C   0  0  0  0  0  0  0  0  0  0  0  0
    9.5263   -5.0000   -0.0000 C   0  0  0  0  0  0  0  0  0  0  0  0
   10.3923   -3.5000   -0.0000 C   0  0  0  0  0  0  0  0  0  0  0  0
   10.3923   -4.5000   -0.0000 C   0  0  0  0  0  0  0  0  0  0  0  0
   11.2583   -5.0000   -0.0000 O   0  0  0  0  0  0  0  0  0  0  0  0
  1  2  1  0  0  0  0
  1  3  1  0  0  0  0
  2  4  2  0  0  0  0
  2  5  1  0  0  0  0
  3  6  1  0  0  0  0
  4  7  1  0  0  0  0
  5  8  2  0  0  0  0
  6  9  1  0  0  0  0
  7 10  2  0  0  0  0
 10 11  1  0  0  0  0
 11 12  2  0  0  0  0
 11 13  1  0  0  0  0
 12 14  1  0  0  0  0
 12 15  1  0  0  0  0
 13 16  2  0  0  0  0
 14 17  1  0  0  0  0
 15 18  1  0  0  0  0
 15 19  2  0  0  0  0
 16 20  1  0  0  0  0
 19 21  1  0  0  0  0
 20 22  1  0  0  0  0
 21 23  2  0  0  0  0
 21 24  1  0  0  0  0
 23 25  1  0  0  0  0
 24 26  2  0  0  0  0
 25 27  2  0  0  0  0
 27 28  1  0  0  0  0
  8 10  1  0  0  0  0
 16 19  1  0  0  0  0
 26 27  1  0  0  0  0
M  END
>  <S/N>
345

>  <Compound ID>
C_361

>  <PubChem CID>
145974910

>  <Isomeric SMILES>
CCCOC1=CC=C(C=C1)C2=CC(=C(C(=C2OC)O)C3=CC=C(C=C3)O)OC

>  <IC50 (�M)>
10

>  <pIC50>
5

$$$$
C_362
Actelion Java MolfileCreator 1.0

 38 42  0  0  0  0  0  0  0  0999 V2000
    1.7321   -0.5000   -0.0000 O   0  0  0  0  0  0  0  0  0  0  0  0
    2.5981   -0.0000   -0.0000 C   0  0  0  0  0  0  0  0  0  0  0  0
    0.8660   -0.0000   -0.0000 C   0  0  0  0  0  0  0  0  0  0  0  0
    3.4641   -0.5000   -0.0000 C   0  0  0  0  0  0  0  0  0  0  0  0
    2.5981    1.0000   -0.0000 C   0  0  0  0  0  0  0  0  0  0  0  0
    0.0000   -0.5000   -0.0000 C   0  0  0  0  0  0  0  0  0  0  0  0
    4.3301    0.0000   -0.0000 C   0  0  0  0  0  0  0  0  0  0  0  0
    3.4641    1.5000   -0.0000 C   0  0  0  0  0  0  0  0  0  0  0  0
   -0.8660    0.0000   -0.0000 C   0  0  0  0  0  0  0  0  0  0  0  0
   -0.0000   -1.5000   -0.0000 C   0  0  0  0  0  0  0  0  0  0  0  0
    4.3301    1.0000   -0.0000 C   0  0  0  0  0  0  0  0  0  0  0  0
   -1.7321   -0.5000   -0.0000 C   0  0  0  0  0  0  0  0  0  0  0  0
   -0.8660   -2.0000   -0.0000 C   0  0  0  0  0  0  0  0  0  0  0  0
    5.1962    1.5000   -0.0000 C   0  0  0  0  0  0  0  0  0  0  0  0
   -1.7321   -1.5000   -0.0000 C   0  0  0  0  0  0  0  0  0  0  0  0
    6.0622    1.0000   -0.0000 C   0  0  0  0  0  0  0  0  0  0  0  0
    5.1962    2.5000   -0.0000 C   0  0  0  0  0  0  0  0  0  0  0  0
   -2.5981   -2.0000   -0.0000 C   0  0  0  0  0  0  0  0  0  0  0  0
    6.0622    0.0000   -0.0000 O   0  0  0  0  0  0  0  0  0  0  0  0
    6.9282    1.5000   -0.0000 C   0  0  0  0  0  0  0  0  0  0  0  0
    6.0622    3.0000   -0.0000 C   0  0  0  0  0  0  0  0  0  0  0  0
   -3.4641   -1.5000   -0.0000 C   0  0  0  0  0  0  0  0  0  0  0  0
   -2.5981   -3.0000   -0.0000 C   0  0  0  0  0  0  0  0  0  0  0  0
    6.9282   -0.5000   -0.0000 C   0  0  0  0  0  0  0  0  0  0  0  0
    7.7942    1.0000   -0.0000 O   0  0  0  0  0  0  0  0  0  0  0  0
    6.9282    2.5000   -0.0000 C   0  0  0  0  0  0  0  0  0  0  0  0
    6.0622    4.0000   -0.0000 O   0  0  0  0  0  0  0  0  0  0  0  0
   -4.3301   -2.0000   -0.0000 C   0  0  0  0  0  0  0  0  0  0  0  0
   -3.4641   -3.5000   -0.0000 C   0  0  0  0  0  0  0  0  0  0  0  0
    7.7942    3.0000   -0.0000 C   0  0  0  0  0  0  0  0  0  0  0  0
    5.1962    4.5000   -0.0000 C   0  0  0  0  0  0  0  0  0  0  0  0
   -4.3301   -3.0000   -0.0000 C   0  0  0  0  0  0  0  0  0  0  0  0
    8.6603    2.5000   -0.0000 C   0  0  0  0  0  0  0  0  0  0  0  0
    7.7942    4.0000   -0.0000 C   0  0  0  0  0  0  0  0  0  0  0  0
    9.5263    3.0000   -0.0000 C   0  0  0  0  0  0  0  0  0  0  0  0
    8.6603    4.5000   -0.0000 C   0  0  0  0  0  0  0  0  0  0  0  0
    9.5263    4.0000   -0.0000 C   0  0  0  0  0  0  0  0  0  0  0  0
   10.3923    4.5000   -0.0000 O   0  0  0  0  0  0  0  0  0  0  0  0
  1  2  1  0  0  0  0
  1  3  1  0  0  0  0
  2  4  2  0  0  0  0
  2  5  1  0  0  0  0
  3  6  1  0  0  0  0
  4  7  1  0  0  0  0
  5  8  2  0  0  0  0
  6  9  2  0  0  0  0
  6 10  1  0  0  0  0
  7 11  2  0  0  0  0
  9 12  1  0  0  0  0
 10 13  2  0  0  0  0
 11 14  1  0  0  0  0
 12 15  2  0  0  0  0
 14 16  2  0  0  0  0
 14 17  1  0  0  0  0
 15 18  1  0  0  0  0
 16 19  1  0  0  0  0
 16 20  1  0  0  0  0
 17 21  2  0  0  0  0
 18 22  2  0  0  0  0
 18 23  1  0  0  0  0
 19 24  1  0  0  0  0
 20 25  1  0  0  0  0
 20 26  2  0  0  0  0
 21 27  1  0  0  0  0
 22 28  1  0  0  0  0
 23 29  2  0  0  0  0
 26 30  1  0  0  0  0
 27 31  1  0  0  0  0
 28 32  2  0  0  0  0
 30 33  2  0  0  0  0
 30 34  1  0  0  0  0
 33 35  1  0  0  0  0
 34 36  2  0  0  0  0
 35 37  2  0  0  0  0
 37 38  1  0  0  0  0
  8 11  1  0  0  0  0
 13 15  1  0  0  0  0
 21 26  1  0  0  0  0
 29 32  1  0  0  0  0
 36 37  1  0  0  0  0
M  END
>  <S/N>
346

>  <Compound ID>
C_362

>  <PubChem CID>
145975037

>  <Isomeric SMILES>
COC1=C(C(=C(C(=C1)C2=CC=C(C=C2)OCC3=CC=C(C=C3)C4=CC=CC=C4)OC)O)C5=CC=C(C=C5)O

>  <IC50 (�M)>
12.2

>  <pIC50>
4.91

$$$$
C_363
Actelion Java MolfileCreator 1.0

 34 37  0  0  0  0  0  0  0  0999 V2000
   13.9183   -5.1517   -0.0000 O   0  0  0  0  0  0  0  0  0  0  0  0
   12.4183   -5.1517   -0.0000 C   0  0  0  0  0  0  0  0  0  0  0  0
   11.6683   -3.8527   -0.0000 C   0  0  0  0  0  0  0  0  0  0  0  0
   11.6683   -6.4508   -0.0000 C   0  0  0  0  0  0  0  0  0  0  0  0
   12.4183   -2.5537   -0.0000 C   0  0  0  0  0  0  0  0  0  0  0  0
   10.1683   -3.8527   -0.0000 C   0  0  0  0  0  0  0  0  0  0  0  0
   10.1683   -6.4508   -0.0000 C   0  0  0  0  0  0  0  0  0  0  0  0
   12.4183   -7.7498   -0.0000 C   0  0  0  0  0  0  0  0  0  0  0  0
   13.9183   -2.5537   -0.0000 O   0  0  0  0  0  0  0  0  0  0  0  0
   11.6683   -1.2546   -0.0000 C   0  0  0  0  0  0  0  0  0  0  0  0
    9.4183   -5.1517   -0.0000 O   0  0  0  0  0  0  0  0  0  0  0  0
    9.4183   -2.5537   -0.0000 C   0  0  0  0  0  0  0  0  0  0  0  0
    9.4183   -7.7498   -0.0000 C   0  0  0  0  0  0  0  0  0  0  0  0
   11.6683   -9.0489   -0.0000 C   0  0  0  0  0  0  0  0  0  0  0  0
   10.1683   -1.2546   -0.0000 C   0  0  0  0  0  0  0  0  0  0  0  0
   12.4183    0.0444   -0.0000 C   0  0  0  0  0  0  0  0  0  0  0  0
    7.9510   -2.2418   -0.0000 C   0  0  0  0  0  0  0  0  0  0  0  0
   10.1683   -9.0489   -0.0000 C   0  0  0  0  0  0  0  0  0  0  0  0
   12.4183  -10.3479   -0.0000 O   0  0  0  0  0  0  0  0  0  0  0  0
    9.1646   -0.1399   -0.0000 O   0  0  0  0  0  0  0  0  0  0  0  0
   11.6683    1.3435   -0.0000 C   0  0  0  0  0  0  0  0  0  0  0  0
    7.7942   -0.7500   -0.0000 C   0  0  0  0  0  0  0  0  0  0  0  0
   12.4183    2.6425   -0.0000 C   0  0  0  0  0  0  0  0  0  0  0  0
    6.4952   -0.0000   -0.0000 C   0  0  0  0  0  0  0  0  0  0  0  0
   13.9183    2.6425   -0.0000 C   0  0  0  0  0  0  0  0  0  0  0  0
   11.6683    3.9415   -0.0000 C   0  0  0  0  0  0  0  0  0  0  0  0
    7.2452    1.2990   -0.0000 O   0  0  0  0  0  0  0  0  0  0  0  0
    5.1962   -0.7500   -0.0000 C   0  0  0  0  0  0  0  0  0  0  0  0
    5.7452    1.2990   -0.0000 C   0  0  0  0  0  0  0  0  0  0  0  0
    3.8971   -0.0000   -0.0000 C   0  0  0  0  0  0  0  0  0  0  0  0
    2.5981   -0.7500   -0.0000 C   0  0  0  0  0  0  0  0  0  0  0  0
    1.2990   -0.0000   -0.0000 C   0  0  0  0  0  0  0  0  0  0  0  0
    1.2990    1.5000   -0.0000 C   0  0  0  0  0  0  0  0  0  0  0  0
    0.0000   -0.7500   -0.0000 C   0  0  0  0  0  0  0  0  0  0  0  0
  1  2  2  0  0  0  0
  2  3  1  0  0  0  0
  2  4  1  0  0  0  0
  3  5  2  0  0  0  0
  3  6  1  0  0  0  0
  4  7  2  0  0  0  0
  4  8  1  0  0  0  0
  5  9  1  0  0  0  0
  5 10  1  0  0  0  0
  6 11  1  0  0  0  0
  6 12  2  0  0  0  0
  7 13  1  0  0  0  0
  8 14  2  0  0  0  0
 10 15  2  0  0  0  0
 10 16  1  0  0  0  0
 12 17  1  0  0  0  0
 13 18  2  0  0  0  0
 14 19  1  0  0  0  0
 15 20  1  0  0  0  0
 16 21  1  0  0  0  0
 17 22  1  0  0  0  0
 21 23  2  0  0  0  0
 22 24  1  0  0  0  0
 23 25  1  0  0  0  0
 23 26  1  0  0  0  0
 24 27  1  0  0  0  0
 24 28  1  0  0  0  0
 24 29  1  0  0  0  0
 28 30  1  0  0  0  0
 30 31  1  0  0  0  0
 31 32  2  0  0  0  0
 32 33  1  0  0  0  0
 32 34  1  0  0  0  0
  7 11  1  0  0  0  0
 12 15  1  0  0  0  0
 14 18  1  0  0  0  0
 20 22  1  0  0  0  0
M  END
>  <S/N>
347

>  <Compound ID>
C_363

>  <PubChem CID>
145975482

>  <Isomeric SMILES>
CC(=CCCC(C)(C1CC2=C3C(=C(C(=C2O1)CC=C(C)C)O)C(=O)C4=C(O3)C=CC(=C4)O)O)C

>  <IC50 (�M)>
16.1

>  <pIC50>
4.79

$$$$
C_364
Actelion Java MolfileCreator 1.0

 31 33  0  0  0  0  0  0  0  0999 V2000
    3.4641   -0.5000   -0.0000 Br  0  0  0  0  0  0  0  0  0  0  0  0
    2.5981   -0.0000   -0.0000 C   0  0  0  0  0  0  0  0  0  0  0  0
    1.7321   -0.5000   -0.0000 C   0  0  0  0  0  0  0  0  0  0  0  0
    0.8660   -0.0000   -0.0000 O   0  0  0  0  0  0  0  0  0  0  0  0
    0.0000   -0.5000   -0.0000 C   0  0  0  0  0  0  0  0  0  0  0  0
   -0.8660    0.0000   -0.0000 C   0  0  0  0  0  0  0  0  0  0  0  0
   -0.0000   -1.5000   -0.0000 C   0  0  0  0  0  0  0  0  0  0  0  0
   -0.8660    1.0000   -0.0000 O   0  0  0  0  0  0  0  0  0  0  0  0
   -1.7321   -0.5000   -0.0000 C   0  0  0  0  0  0  0  0  0  0  0  0
   -0.8660   -2.0000   -0.0000 C   0  0  0  0  0  0  0  0  0  0  0  0
    0.8660   -2.0000   -0.0000 C   0  0  0  0  0  0  0  0  0  0  0  0
   -1.7321    1.5000   -0.0000 C   0  0  0  0  0  0  0  0  0  0  0  0
   -2.5981    0.0000   -0.0000 C   0  0  0  0  0  0  0  0  0  0  0  0
   -1.7321   -1.5000   -0.0000 C   0  0  0  0  0  0  0  0  0  0  0  0
   -0.8660   -3.0000   -0.0000 O   0  0  0  0  0  0  0  0  0  0  0  0
    0.8660   -3.0000   -0.0000 C   0  0  0  0  0  0  0  0  0  0  0  0
    1.7321   -1.5000   -0.0000 C   0  0  0  0  0  0  0  0  0  0  0  0
   -2.5981    1.0000   -0.0000 C   0  0  0  0  0  0  0  0  0  0  0  0
   -3.4641   -0.5000   -0.0000 C   0  0  0  0  0  0  0  0  0  0  0  0
   -0.0000   -3.5000   -0.0000 C   0  0  0  0  0  0  0  0  0  0  0  0
    1.7321   -3.5000   -0.0000 C   0  0  0  0  0  0  0  0  0  0  0  0
    2.5981   -2.0000   -0.0000 C   0  0  0  0  0  0  0  0  0  0  0  0
   -3.4641    1.5000   -0.0000 C   0  0  0  0  0  0  0  0  0  0  0  0
   -4.3301    0.0000   -0.0000 C   0  0  0  0  0  0  0  0  0  0  0  0
    2.5981   -3.0000   -0.0000 C   0  0  0  0  0  0  0  0  0  0  0  0
   -4.3301    1.0000   -0.0000 C   0  0  0  0  0  0  0  0  0  0  0  0
    3.4641   -3.5000   -0.0000 O   0  0  0  0  0  0  0  0  0  0  0  0
   -5.1962    1.5000   -0.0000 O   0  0  0  0  0  0  0  0  0  0  0  0
   -6.0622    1.0000   -0.0000 C   0  0  0  0  0  0  0  0  0  0  0  0
   -6.9282    1.5000   -0.0000 C   0  0  0  0  0  0  0  0  0  0  0  0
   -7.7942    1.0000   -0.0000 Br  0  0  0  0  0  0  0  0  0  0  0  0
  1  2  1  0  0  0  0
  2  3  1  0  0  0  0
  3  4  1  0  0  0  0
  4  5  1  0  0  0  0
  5  6  2  0  0  0  0
  5  7  1  0  0  0  0
  6  8  1  0  0  0  0
  6  9  1  0  0  0  0
  7 10  2  0  0  0  0
  7 11  1  0  0  0  0
  8 12  1  0  0  0  0
  9 13  1  0  0  0  0
  9 14  2  0  0  0  0
 10 15  1  0  0  0  0
 11 16  2  0  0  0  0
 11 17  1  0  0  0  0
 13 18  2  0  0  0  0
 13 19  1  0  0  0  0
 15 20  1  0  0  0  0
 16 21  1  0  0  0  0
 17 22  2  0  0  0  0
 18 23  1  0  0  0  0
 19 24  2  0  0  0  0
 21 25  2  0  0  0  0
 23 26  2  0  0  0  0
 25 27  1  0  0  0  0
 26 28  1  0  0  0  0
 28 29  1  0  0  0  0
 29 30  1  0  0  0  0
 30 31  1  0  0  0  0
 10 14  1  0  0  0  0
 22 25  1  0  0  0  0
 24 26  1  0  0  0  0
M  END
>  <S/N>
348

>  <Compound ID>
C_364

>  <PubChem CID>
145976069

>  <Isomeric SMILES>
COC1=C(C(=C(C(=C1)C2=CC=C(C=C2)OCCBr)OC)OCCBr)C3=CC=C(C=C3)O

>  <IC50 (�M)>
6.67

>  <pIC50>
5.18

$$$$
C_365
Actelion Java MolfileCreator 1.0

 30 32  0  0  0  0  0  0  0  0999 V2000
    5.1962   -0.7500   -0.0000 O   0  0  0  0  0  0  0  0  0  0  0  0
    6.4952   -0.0000   -0.0000 C   0  0  0  0  0  0  0  0  0  0  0  0
    3.8971   -0.0000   -0.0000 C   0  0  0  0  0  0  0  0  0  0  0  0
    7.7942   -0.7500   -0.0000 C   0  0  0  0  0  0  0  0  0  0  0  0
    6.4952    1.5000   -0.0000 C   0  0  0  0  0  0  0  0  0  0  0  0
    2.5981   -0.7500   -0.0000 C   0  0  0  0  0  0  0  0  0  0  0  0
    9.0933   -0.0000   -0.0000 C   0  0  0  0  0  0  0  0  0  0  0  0
    7.7942    2.2500   -0.0000 C   0  0  0  0  0  0  0  0  0  0  0  0
    1.2990   -0.0000   -0.0000 C   0  0  0  0  0  0  0  0  0  0  0  0
    9.0933    1.5000   -0.0000 C   0  0  0  0  0  0  0  0  0  0  0  0
    1.2990    1.5000   -0.0000 C   0  0  0  0  0  0  0  0  0  0  0  0
    0.0000   -0.7500   -0.0000 C   0  0  0  0  0  0  0  0  0  0  0  0
   10.3923    2.2500   -0.0000 C   0  0  0  0  0  0  0  0  0  0  0  0
   11.6913    1.5000   -0.0000 C   0  0  0  0  0  0  0  0  0  0  0  0
   10.3923    3.7500   -0.0000 C   0  0  0  0  0  0  0  0  0  0  0  0
   11.6913   -0.0000   -0.0000 O   0  0  0  0  0  0  0  0  0  0  0  0
   12.9904    2.2500   -0.0000 C   0  0  0  0  0  0  0  0  0  0  0  0
   11.6913    4.5000   -0.0000 C   0  0  0  0  0  0  0  0  0  0  0  0
   12.9904   -0.7500   -0.0000 C   0  0  0  0  0  0  0  0  0  0  0  0
   14.2894    1.5000   -0.0000 O   0  0  0  0  0  0  0  0  0  0  0  0
   12.9904    3.7500   -0.0000 C   0  0  0  0  0  0  0  0  0  0  0  0
   11.6913    6.0000   -0.0000 O   0  0  0  0  0  0  0  0  0  0  0  0
   14.2894    4.5000   -0.0000 C   0  0  0  0  0  0  0  0  0  0  0  0
   10.3923    6.7500   -0.0000 C   0  0  0  0  0  0  0  0  0  0  0  0
   15.5885    3.7500   -0.0000 C   0  0  0  0  0  0  0  0  0  0  0  0
   14.2894    6.0000   -0.0000 C   0  0  0  0  0  0  0  0  0  0  0  0
   16.8875    4.5000   -0.0000 C   0  0  0  0  0  0  0  0  0  0  0  0
   15.5885    6.7500   -0.0000 C   0  0  0  0  0  0  0  0  0  0  0  0
   16.8875    6.0000   -0.0000 C   0  0  0  0  0  0  0  0  0  0  0  0
   18.1865    6.7500   -0.0000 O   0  0  0  0  0  0  0  0  0  0  0  0
  1  2  1  0  0  0  0
  1  3  1  0  0  0  0
  2  4  2  0  0  0  0
  2  5  1  0  0  0  0
  3  6  1  0  0  0  0
  4  7  1  0  0  0  0
  5  8  2  0  0  0  0
  6  9  1  0  0  0  0
  7 10  2  0  0  0  0
  9 11  1  0  0  0  0
  9 12  1  0  0  0  0
 10 13  1  0  0  0  0
 13 14  2  0  0  0  0
 13 15  1  0  0  0  0
 14 16  1  0  0  0  0
 14 17  1  0  0  0  0
 15 18  2  0  0  0  0
 16 19  1  0  0  0  0
 17 20  1  0  0  0  0
 17 21  2  0  0  0  0
 18 22  1  0  0  0  0
 21 23  1  0  0  0  0
 22 24  1  0  0  0  0
 23 25  2  0  0  0  0
 23 26  1  0  0  0  0
 25 27  1  0  0  0  0
 26 28  2  0  0  0  0
 27 29  2  0  0  0  0
 29 30  1  0  0  0  0
  8 10  1  0  0  0  0
 18 21  1  0  0  0  0
 28 29  1  0  0  0  0
M  END
>  <S/N>
349

>  <Compound ID>
C_365

>  <PubChem CID>
145976610

>  <Isomeric SMILES>
CC(C)CCOC1=CC=C(C=C1)C2=CC(=C(C(=C2OC)O)C3=CC=C(C=C3)O)OC

>  <IC50 (�M)>
14.3

>  <pIC50>
4.84

$$$$
C_366
Actelion Java MolfileCreator 1.0

 24 26  0  0  0  0  0  0  0  0999 V2000
    0.8660   -0.0000   -0.0000 O   0  0  0  0  0  0  0  0  0  0  0  0
    1.7321   -0.5000   -0.0000 C   0  0  0  0  0  0  0  0  0  0  0  0
    0.0000   -0.5000   -0.0000 C   0  0  0  0  0  0  0  0  0  0  0  0
    1.7321   -1.5000   -0.0000 C   0  0  0  0  0  0  0  0  0  0  0  0
    2.5981   -0.0000   -0.0000 C   0  0  0  0  0  0  0  0  0  0  0  0
    2.5981   -2.0000   -0.0000 C   0  0  0  0  0  0  0  0  0  0  0  0
    0.8660   -2.0000   -0.0000 C   0  0  0  0  0  0  0  0  0  0  0  0
    3.4641   -0.5000   -0.0000 C   0  0  0  0  0  0  0  0  0  0  0  0
    2.5981   -3.0000   -0.0000 O   0  0  0  0  0  0  0  0  0  0  0  0
    3.4641   -1.5000   -0.0000 C   0  0  0  0  0  0  0  0  0  0  0  0
    0.0000   -1.5000   -0.0000 C   0  0  0  0  0  0  0  0  0  0  0  0
    0.8660   -3.0000   -0.0000 C   0  0  0  0  0  0  0  0  0  0  0  0
    4.3301   -0.0000   -0.0000 C   0  0  0  0  0  0  0  0  0  0  0  0
    4.3301   -2.0000   -0.0000 O   0  0  0  0  0  0  0  0  0  0  0  0
   -0.8660   -2.0000   -0.0000 C   0  0  0  0  0  0  0  0  0  0  0  0
   -0.0000   -3.5000   -0.0000 C   0  0  0  0  0  0  0  0  0  0  0  0
    5.1962   -0.5000   -0.0000 C   0  0  0  0  0  0  0  0  0  0  0  0
    4.3301    1.0000   -0.0000 C   0  0  0  0  0  0  0  0  0  0  0  0
   -0.8660   -3.0000   -0.0000 C   0  0  0  0  0  0  0  0  0  0  0  0
    6.0622   -0.0000   -0.0000 C   0  0  0  0  0  0  0  0  0  0  0  0
    5.1962    1.5000   -0.0000 C   0  0  0  0  0  0  0  0  0  0  0  0
   -1.7321   -3.5000   -0.0000 O   0  0  0  0  0  0  0  0  0  0  0  0
    6.0622    1.0000   -0.0000 C   0  0  0  0  0  0  0  0  0  0  0  0
    6.9282    1.5000   -0.0000 O   0  0  0  0  0  0  0  0  0  0  0  0
  1  2  1  0  0  0  0
  1  3  1  0  0  0  0
  2  4  2  0  0  0  0
  2  5  1  0  0  0  0
  4  6  1  0  0  0  0
  4  7  1  0  0  0  0
  5  8  2  0  0  0  0
  6  9  1  0  0  0  0
  6 10  2  0  0  0  0
  7 11  2  0  0  0  0
  7 12  1  0  0  0  0
  8 13  1  0  0  0  0
 10 14  1  0  0  0  0
 11 15  1  0  0  0  0
 12 16  2  0  0  0  0
 13 17  2  0  0  0  0
 13 18  1  0  0  0  0
 15 19  2  0  0  0  0
 17 20  1  0  0  0  0
 18 21  2  0  0  0  0
 19 22  1  0  0  0  0
 20 23  2  0  0  0  0
 23 24  1  0  0  0  0
  8 10  1  0  0  0  0
 16 19  1  0  0  0  0
 21 23  1  0  0  0  0
M  END
>  <S/N>
350

>  <Compound ID>
C_366

>  <PubChem CID>
145976670

>  <Isomeric SMILES>
COC1=C(C(=C(C(=C1)C2=CC=C(C=C2)O)O)O)C3=CC=C(C=C3)O

>  <IC50 (�M)>
13.2

>  <pIC50>
4.88

$$$$
C_368
Actelion Java MolfileCreator 1.0

 32 35  0  0  0  0  0  0  0  0999 V2000
    2.5981   -0.7500   -0.0000 O   0  0  0  0  0  0  0  0  0  0  0  0
    3.8971   -0.0000   -0.0000 C   0  0  0  0  0  0  0  0  0  0  0  0
    1.2990   -0.0000   -0.0000 C   0  0  0  0  0  0  0  0  0  0  0  0
    5.1962   -0.7500   -0.0000 C   0  0  0  0  0  0  0  0  0  0  0  0
    3.8971    1.5000   -0.0000 C   0  0  0  0  0  0  0  0  0  0  0  0
    0.0000   -0.7500   -0.0000 C   0  0  0  0  0  0  0  0  0  0  0  0
    6.4952    0.0000   -0.0000 C   0  0  0  0  0  0  0  0  0  0  0  0
    5.1962    2.2500   -0.0000 C   0  0  0  0  0  0  0  0  0  0  0  0
   -1.2990    0.0000   -0.0000 C   0  0  0  0  0  0  0  0  0  0  0  0
   -0.0000   -2.2500   -0.0000 C   0  0  0  0  0  0  0  0  0  0  0  0
    6.4952    1.5000   -0.0000 C   0  0  0  0  0  0  0  0  0  0  0  0
   -2.5981   -0.7500   -0.0000 C   0  0  0  0  0  0  0  0  0  0  0  0
   -1.2990   -3.0000   -0.0000 C   0  0  0  0  0  0  0  0  0  0  0  0
    7.7942    2.2500   -0.0000 C   0  0  0  0  0  0  0  0  0  0  0  0
   -2.5981   -2.2500   -0.0000 C   0  0  0  0  0  0  0  0  0  0  0  0
    9.0933    1.5000   -0.0000 C   0  0  0  0  0  0  0  0  0  0  0  0
    7.7942    3.7500   -0.0000 C   0  0  0  0  0  0  0  0  0  0  0  0
    9.0933    0.0000   -0.0000 O   0  0  0  0  0  0  0  0  0  0  0  0
   10.3923    2.2500   -0.0000 C   0  0  0  0  0  0  0  0  0  0  0  0
    6.4952    4.5000   -0.0000 O   0  0  0  0  0  0  0  0  0  0  0  0
    9.0933    4.5000   -0.0000 C   0  0  0  0  0  0  0  0  0  0  0  0
   11.6913    1.5000   -0.0000 O   0  0  0  0  0  0  0  0  0  0  0  0
   10.3923    3.7500   -0.0000 C   0  0  0  0  0  0  0  0  0  0  0  0
    5.1962    3.7500   -0.0000 C   0  0  0  0  0  0  0  0  0  0  0  0
   12.9904    2.2500   -0.0000 C   0  0  0  0  0  0  0  0  0  0  0  0
   11.6913    4.5000   -0.0000 C   0  0  0  0  0  0  0  0  0  0  0  0
   12.9904    3.7500   -0.0000 C   0  0  0  0  0  0  0  0  0  0  0  0
   11.6913    6.0000   -0.0000 C   0  0  0  0  0  0  0  0  0  0  0  0
   14.2894    4.5000   -0.0000 C   0  0  0  0  0  0  0  0  0  0  0  0
   12.9904    6.7500   -0.0000 C   0  0  0  0  0  0  0  0  0  0  0  0
   14.2894    6.0000   -0.0000 C   0  0  0  0  0  0  0  0  0  0  0  0
   15.5885    6.7500   -0.0000 O   0  0  0  0  0  0  0  0  0  0  0  0
  1  2  1  0  0  0  0
  1  3  1  0  0  0  0
  2  4  2  0  0  0  0
  2  5  1  0  0  0  0
  3  6  1  0  0  0  0
  4  7  1  0  0  0  0
  5  8  2  0  0  0  0
  6  9  2  0  0  0  0
  6 10  1  0  0  0  0
  7 11  2  0  0  0  0
  9 12  1  0  0  0  0
 10 13  2  0  0  0  0
 11 14  1  0  0  0  0
 12 15  2  0  0  0  0
 14 16  2  0  0  0  0
 14 17  1  0  0  0  0
 16 18  1  0  0  0  0
 16 19  1  0  0  0  0
 17 20  1  0  0  0  0
 17 21  2  0  0  0  0
 19 22  1  0  0  0  0
 19 23  2  0  0  0  0
 20 24  1  0  0  0  0
 22 25  1  0  0  0  0
 23 26  1  0  0  0  0
 26 27  2  0  0  0  0
 26 28  1  0  0  0  0
 27 29  1  0  0  0  0
 28 30  2  0  0  0  0
 29 31  2  0  0  0  0
 31 32  1  0  0  0  0
  8 11  1  0  0  0  0
 13 15  1  0  0  0  0
 21 23  1  0  0  0  0
 30 31  1  0  0  0  0
M  END
>  <S/N>
351

>  <Compound ID>
C_368

>  <PubChem CID>
145976888

>  <Isomeric SMILES>
COC1=C(C(=C(C(=C1)C2=CC=C(C=C2)O)OC)O)C3=CC=C(C=C3)OCC4=CC=CC=C4

>  <IC50 (�M)>
12.5

>  <pIC50>
4.9

$$$$
C_369
Actelion Java MolfileCreator 1.0

 32 35  0  0  0  0  0  0  0  0999 V2000
    2.5981   -0.7500   -0.0000 O   0  0  0  0  0  0  0  0  0  0  0  0
    3.8971   -0.0000   -0.0000 C   0  0  0  0  0  0  0  0  0  0  0  0
    1.2990   -0.0000   -0.0000 C   0  0  0  0  0  0  0  0  0  0  0  0
    5.1962   -0.7500   -0.0000 C   0  0  0  0  0  0  0  0  0  0  0  0
    3.8971    1.5000   -0.0000 C   0  0  0  0  0  0  0  0  0  0  0  0
    0.0000   -0.7500   -0.0000 C   0  0  0  0  0  0  0  0  0  0  0  0
    5.1962   -2.2500   -0.0000 O   0  0  0  0  0  0  0  0  0  0  0  0
    6.4952    0.0000   -0.0000 C   0  0  0  0  0  0  0  0  0  0  0  0
    5.1962    2.2500   -0.0000 C   0  0  0  0  0  0  0  0  0  0  0  0
    2.5981    2.2500   -0.0000 C   0  0  0  0  0  0  0  0  0  0  0  0
   -1.2990    0.0000   -0.0000 C   0  0  0  0  0  0  0  0  0  0  0  0
   -0.0000   -2.2500   -0.0000 C   0  0  0  0  0  0  0  0  0  0  0  0
    6.4952   -3.0000   -0.0000 C   0  0  0  0  0  0  0  0  0  0  0  0
    7.7942   -0.7500   -0.0000 C   0  0  0  0  0  0  0  0  0  0  0  0
    6.4952    1.5000   -0.0000 C   0  0  0  0  0  0  0  0  0  0  0  0
    5.1962    3.7500   -0.0000 O   0  0  0  0  0  0  0  0  0  0  0  0
    2.5981    3.7500   -0.0000 C   0  0  0  0  0  0  0  0  0  0  0  0
    1.2990    1.5000   -0.0000 C   0  0  0  0  0  0  0  0  0  0  0  0
   -2.5981   -0.7500   -0.0000 C   0  0  0  0  0  0  0  0  0  0  0  0
   -1.2990   -3.0000   -0.0000 C   0  0  0  0  0  0  0  0  0  0  0  0
    7.7942   -2.2500   -0.0000 C   0  0  0  0  0  0  0  0  0  0  0  0
    9.0933    0.0000   -0.0000 C   0  0  0  0  0  0  0  0  0  0  0  0
    3.8971    4.5000   -0.0000 C   0  0  0  0  0  0  0  0  0  0  0  0
    1.2990    4.5000   -0.0000 C   0  0  0  0  0  0  0  0  0  0  0  0
   -0.0000    2.2500   -0.0000 C   0  0  0  0  0  0  0  0  0  0  0  0
   -2.5981   -2.2500   -0.0000 C   0  0  0  0  0  0  0  0  0  0  0  0
    9.0933   -3.0000   -0.0000 C   0  0  0  0  0  0  0  0  0  0  0  0
   10.3923   -0.7500   -0.0000 C   0  0  0  0  0  0  0  0  0  0  0  0
   -0.0000    3.7500   -0.0000 C   0  0  0  0  0  0  0  0  0  0  0  0
   10.3923   -2.2500   -0.0000 C   0  0  0  0  0  0  0  0  0  0  0  0
   -1.2990    4.5000   -0.0000 O   0  0  0  0  0  0  0  0  0  0  0  0
   11.6913   -3.0000   -0.0000 O   0  0  0  0  0  0  0  0  0  0  0  0
  1  2  1  0  0  0  0
  1  3  1  0  0  0  0
  2  4  2  0  0  0  0
  2  5  1  0  0  0  0
  3  6  1  0  0  0  0
  4  7  1  0  0  0  0
  4  8  1  0  0  0  0
  5  9  2  0  0  0  0
  5 10  1  0  0  0  0
  6 11  2  0  0  0  0
  6 12  1  0  0  0  0
  7 13  1  0  0  0  0
  8 14  1  0  0  0  0
  8 15  2  0  0  0  0
  9 16  1  0  0  0  0
 10 17  2  0  0  0  0
 10 18  1  0  0  0  0
 11 19  1  0  0  0  0
 12 20  2  0  0  0  0
 14 21  2  0  0  0  0
 14 22  1  0  0  0  0
 16 23  1  0  0  0  0
 17 24  1  0  0  0  0
 18 25  2  0  0  0  0
 19 26  2  0  0  0  0
 21 27  1  0  0  0  0
 22 28  2  0  0  0  0
 24 29  2  0  0  0  0
 27 30  2  0  0  0  0
 29 31  1  0  0  0  0
 30 32  1  0  0  0  0
  9 15  1  0  0  0  0
 20 26  1  0  0  0  0
 25 29  1  0  0  0  0
 28 30  1  0  0  0  0
M  END
>  <S/N>
352

>  <Compound ID>
C_369

>  <PubChem CID>
145977197

>  <Isomeric SMILES>
COC1=C(C(=C(C(=C1)C2=CC=C(C=C2)O)OC)OCC3=CC=CC=C3)C4=CC=C(C=C4)O

>  <IC50 (�M)>
19.1

>  <pIC50>
4.72

$$$$
C_370
Actelion Java MolfileCreator 1.0

 30 32  0  0  0  0  0  0  0  0999 V2000
    3.4641   -0.5000   -0.0000 O   0  0  0  0  0  0  0  0  0  0  0  0
    4.3301   -0.0000   -0.0000 C   0  0  0  0  0  0  0  0  0  0  0  0
    2.5981   -0.0000   -0.0000 C   0  0  0  0  0  0  0  0  0  0  0  0
    5.1962   -0.5000   -0.0000 C   0  0  0  0  0  0  0  0  0  0  0  0
    4.3301    1.0000   -0.0000 C   0  0  0  0  0  0  0  0  0  0  0  0
    1.7321   -0.5000   -0.0000 C   0  0  0  0  0  0  0  0  0  0  0  0
    5.1962   -1.5000   -0.0000 O   0  0  0  0  0  0  0  0  0  0  0  0
    6.0622   -0.0000   -0.0000 C   0  0  0  0  0  0  0  0  0  0  0  0
    5.1962    1.5000   -0.0000 C   0  0  0  0  0  0  0  0  0  0  0  0
    3.4641    1.5000   -0.0000 C   0  0  0  0  0  0  0  0  0  0  0  0
    0.8660   -0.0000   -0.0000 C   0  0  0  0  0  0  0  0  0  0  0  0
    6.0622   -2.0000   -0.0000 C   0  0  0  0  0  0  0  0  0  0  0  0
    6.9282   -0.5000   -0.0000 C   0  0  0  0  0  0  0  0  0  0  0  0
    6.0622    1.0000   -0.0000 C   0  0  0  0  0  0  0  0  0  0  0  0
    5.1962    2.5000   -0.0000 O   0  0  0  0  0  0  0  0  0  0  0  0
    3.4641    2.5000   -0.0000 C   0  0  0  0  0  0  0  0  0  0  0  0
    2.5981    1.0000   -0.0000 C   0  0  0  0  0  0  0  0  0  0  0  0
    0.8660    1.0000   -0.0000 C   0  0  0  0  0  0  0  0  0  0  0  0
    0.0000   -0.5000   -0.0000 C   0  0  0  0  0  0  0  0  0  0  0  0
    6.9282   -1.5000   -0.0000 C   0  0  0  0  0  0  0  0  0  0  0  0
    7.7942   -0.0000   -0.0000 C   0  0  0  0  0  0  0  0  0  0  0  0
    4.3301    3.0000   -0.0000 C   0  0  0  0  0  0  0  0  0  0  0  0
    2.5981    3.0000   -0.0000 C   0  0  0  0  0  0  0  0  0  0  0  0
    1.7321    1.5000   -0.0000 C   0  0  0  0  0  0  0  0  0  0  0  0
    7.7942   -2.0000   -0.0000 C   0  0  0  0  0  0  0  0  0  0  0  0
    8.6603   -0.5000   -0.0000 C   0  0  0  0  0  0  0  0  0  0  0  0
    1.7321    2.5000   -0.0000 C   0  0  0  0  0  0  0  0  0  0  0  0
    8.6603   -1.5000   -0.0000 C   0  0  0  0  0  0  0  0  0  0  0  0
    0.8660    3.0000   -0.0000 O   0  0  0  0  0  0  0  0  0  0  0  0
    9.5263   -2.0000   -0.0000 O   0  0  0  0  0  0  0  0  0  0  0  0
  1  2  1  0  0  0  0
  1  3  1  0  0  0  0
  2  4  2  0  0  0  0
  2  5  1  0  0  0  0
  3  6  1  0  0  0  0
  4  7  1  0  0  0  0
  4  8  1  0  0  0  0
  5  9  2  0  0  0  0
  5 10  1  0  0  0  0
  6 11  2  0  0  0  0
  7 12  1  0  0  0  0
  8 13  1  0  0  0  0
  8 14  2  0  0  0  0
  9 15  1  0  0  0  0
 10 16  2  0  0  0  0
 10 17  1  0  0  0  0
 11 18  1  0  0  0  0
 11 19  1  0  0  0  0
 13 20  2  0  0  0  0
 13 21  1  0  0  0  0
 15 22  1  0  0  0  0
 16 23  1  0  0  0  0
 17 24  2  0  0  0  0
 20 25  1  0  0  0  0
 21 26  2  0  0  0  0
 23 27  2  0  0  0  0
 25 28  2  0  0  0  0
 27 29  1  0  0  0  0
 28 30  1  0  0  0  0
  9 14  1  0  0  0  0
 24 27  1  0  0  0  0
 26 28  1  0  0  0  0
M  END
>  <S/N>
353

>  <Compound ID>
C_370

>  <PubChem CID>
145977661

>  <Isomeric SMILES>
CC(=CCOC1=C(C(=CC(=C1C2=CC=C(C=C2)O)OC)C3=CC=C(C=C3)O)OC)C

>  <IC50 (�M)>
23.4

>  <pIC50>
4.63

$$$$
C_371
Actelion Java MolfileCreator 1.0

 34 36  0  0  0  0  0  0  0  0999 V2000
    8.6603   -3.5000   -0.0000 O   0  0  0  0  0  0  0  0  0  0  0  0
    7.7942   -3.0000   -0.0000 C   0  0  0  0  0  0  0  0  0  0  0  0
    7.7942   -2.0000   -0.0000 C   0  0  0  0  0  0  0  0  0  0  0  0
    6.9282   -3.5000   -0.0000 C   0  0  0  0  0  0  0  0  0  0  0  0
    6.9282   -1.5000   -0.0000 C   0  0  0  0  0  0  0  0  0  0  0  0
    8.6603   -1.5000   -0.0000 C   0  0  0  0  0  0  0  0  0  0  0  0
    6.0622   -3.0000   -0.0000 C   0  0  0  0  0  0  0  0  0  0  0  0
    6.9282   -4.5000   -0.0000 C   0  0  0  0  0  0  0  0  0  0  0  0
    6.0622   -2.0000   -0.0000 O   0  0  0  0  0  0  0  0  0  0  0  0
    6.9282   -0.5000   -0.0000 C   0  0  0  0  0  0  0  0  0  0  0  0
    9.5263   -2.0000   -0.0000 O   0  0  0  0  0  0  0  0  0  0  0  0
    8.6603   -0.5000   -0.0000 C   0  0  0  0  0  0  0  0  0  0  0  0
    5.1962   -3.5000   -0.0000 C   0  0  0  0  0  0  0  0  0  0  0  0
    6.0622   -5.0000   -0.0000 C   0  0  0  0  0  0  0  0  0  0  0  0
    7.7942   -0.0000   -0.0000 C   0  0  0  0  0  0  0  0  0  0  0  0
    6.0622   -0.0000   -0.0000 C   0  0  0  0  0  0  0  0  0  0  0  0
    9.5263   -0.0000   -0.0000 C   0  0  0  0  0  0  0  0  0  0  0  0
    5.1962   -4.5000   -0.0000 C   0  0  0  0  0  0  0  0  0  0  0  0
    6.0622   -6.0000   -0.0000 O   0  0  0  0  0  0  0  0  0  0  0  0
    7.7942    1.0000   -0.0000 O   0  0  0  0  0  0  0  0  0  0  0  0
    5.1962   -0.5000   -0.0000 C   0  0  0  0  0  0  0  0  0  0  0  0
    9.5263    1.0000   -0.0000 C   0  0  0  0  0  0  0  0  0  0  0  0
    5.1962   -1.5000   -0.0000 O   0  0  0  0  0  0  0  0  0  0  0  0
    4.3301   -0.0000   -0.0000 C   0  0  0  0  0  0  0  0  0  0  0  0
   10.3923    1.5000   -0.0000 C   0  0  0  0  0  0  0  0  0  0  0  0
    4.3301    1.0000   -0.0000 C   0  0  0  0  0  0  0  0  0  0  0  0
    3.4641   -0.5000   -0.0000 C   0  0  0  0  0  0  0  0  0  0  0  0
   11.2583    1.0000   -0.0000 C   0  0  0  0  0  0  0  0  0  0  0  0
   10.3923    2.5000   -0.0000 C   0  0  0  0  0  0  0  0  0  0  0  0
    2.5981   -0.0000   -0.0000 C   0  0  0  0  0  0  0  0  0  0  0  0
    1.7321   -0.5000   -0.0000 C   0  0  0  0  0  0  0  0  0  0  0  0
    0.8660   -0.0000   -0.0000 C   0  0  0  0  0  0  0  0  0  0  0  0
    0.8660    1.0000   -0.0000 C   0  0  0  0  0  0  0  0  0  0  0  0
    0.0000   -0.5000   -0.0000 C   0  0  0  0  0  0  0  0  0  0  0  0
  1  2  2  0  0  0  0
  2  3  1  0  0  0  0
  2  4  1  0  0  0  0
  3  5  2  0  0  0  0
  3  6  1  0  0  0  0
  4  7  2  0  0  0  0
  4  8  1  0  0  0  0
  5  9  1  0  0  0  0
  5 10  1  0  0  0  0
  6 11  1  0  0  0  0
  6 12  2  0  0  0  0
  7 13  1  0  0  0  0
  8 14  2  0  0  0  0
 10 15  2  0  0  0  0
 10 16  1  0  0  0  0
 12 17  1  0  0  0  0
 13 18  2  0  0  0  0
 14 19  1  0  0  0  0
 15 20  1  0  0  0  0
 16 21  1  0  0  0  0
 17 22  1  0  0  0  0
 21 23  1  6  0  0  0
 21 24  1  0  0  0  0
 22 25  2  0  0  0  0
 24 26  2  0  0  0  0
 24 27  1  0  0  0  0
 25 28  1  0  0  0  0
 25 29  1  0  0  0  0
 27 30  1  0  0  0  0
 30 31  1  0  0  0  0
 31 32  2  0  0  0  0
 32 33  1  0  0  0  0
 32 34  1  0  0  0  0
  7  9  1  0  0  0  0
 12 15  1  0  0  0  0
 14 18  1  0  0  0  0
M  END
>  <S/N>
354

>  <Compound ID>
C_371

>  <PubChem CID>
145977996

>  <Isomeric SMILES>
CC(=CCCC(=C)C(CC1=C2C(=C(C(=C1O)CC=C(C)C)O)C(=O)C3=C(O2)C=CC(=C3)O)O)C

>  <IC50 (�M)>
10.1

>  <pIC50>
5

$$$$
C_372
Actelion Java MolfileCreator 1.0

 28 30  0  0  0  0  0  0  0  0999 V2000
    2.5981   -0.0000   -0.0000 O   0  0  0  0  0  0  0  0  0  0  0  0
    3.4641   -0.5000   -0.0000 C   0  0  0  0  0  0  0  0  0  0  0  0
    1.7321   -0.5000   -0.0000 C   0  0  0  0  0  0  0  0  0  0  0  0
    3.4641   -1.5000   -0.0000 C   0  0  0  0  0  0  0  0  0  0  0  0
    4.3301   -0.0000   -0.0000 C   0  0  0  0  0  0  0  0  0  0  0  0
    0.8660   -0.0000   -0.0000 C   0  0  0  0  0  0  0  0  0  0  0  0
    4.3301   -2.0000   -0.0000 C   0  0  0  0  0  0  0  0  0  0  0  0
    5.1962   -0.5000   -0.0000 C   0  0  0  0  0  0  0  0  0  0  0  0
    0.0000   -0.5000   -0.0000 C   0  0  0  0  0  0  0  0  0  0  0  0
    5.1962   -1.5000   -0.0000 C   0  0  0  0  0  0  0  0  0  0  0  0
    6.0622   -2.0000   -0.0000 C   0  0  0  0  0  0  0  0  0  0  0  0
    6.0622   -3.0000   -0.0000 C   0  0  0  0  0  0  0  0  0  0  0  0
    6.9282   -1.5000   -0.0000 C   0  0  0  0  0  0  0  0  0  0  0  0
    5.1962   -3.5000   -0.0000 O   0  0  0  0  0  0  0  0  0  0  0  0
    6.9282   -3.5000   -0.0000 C   0  0  0  0  0  0  0  0  0  0  0  0
    6.9282   -0.5000   -0.0000 O   0  0  0  0  0  0  0  0  0  0  0  0
    7.7942   -2.0000   -0.0000 C   0  0  0  0  0  0  0  0  0  0  0  0
    6.9282   -4.5000   -0.0000 O   0  0  0  0  0  0  0  0  0  0  0  0
    7.7942   -3.0000   -0.0000 C   0  0  0  0  0  0  0  0  0  0  0  0
    6.0622   -0.0000   -0.0000 C   0  0  0  0  0  0  0  0  0  0  0  0
    7.7942   -5.0000   -0.0000 C   0  0  0  0  0  0  0  0  0  0  0  0
    8.6603   -3.5000   -0.0000 C   0  0  0  0  0  0  0  0  0  0  0  0
    8.6603   -4.5000   -0.0000 C   0  0  0  0  0  0  0  0  0  0  0  0
    9.5263   -3.0000   -0.0000 C   0  0  0  0  0  0  0  0  0  0  0  0
    9.5263   -5.0000   -0.0000 C   0  0  0  0  0  0  0  0  0  0  0  0
   10.3923   -3.5000   -0.0000 C   0  0  0  0  0  0  0  0  0  0  0  0
   10.3923   -4.5000   -0.0000 C   0  0  0  0  0  0  0  0  0  0  0  0
   11.2583   -5.0000   -0.0000 O   0  0  0  0  0  0  0  0  0  0  0  0
  1  2  1  0  0  0  0
  1  3  1  0  0  0  0
  2  4  2  0  0  0  0
  2  5  1  0  0  0  0
  3  6  1  0  0  0  0
  4  7  1  0  0  0  0
  5  8  2  0  0  0  0
  6  9  2  0  0  0  0
  7 10  2  0  0  0  0
 10 11  1  0  0  0  0
 11 12  2  0  0  0  0
 11 13  1  0  0  0  0
 12 14  1  0  0  0  0
 12 15  1  0  0  0  0
 13 16  1  0  0  0  0
 13 17  2  0  0  0  0
 15 18  1  0  0  0  0
 15 19  2  0  0  0  0
 16 20  1  0  0  0  0
 18 21  1  0  0  0  0
 19 22  1  0  0  0  0
 22 23  2  0  0  0  0
 22 24  1  0  0  0  0
 23 25  1  0  0  0  0
 24 26  2  0  0  0  0
 25 27  2  0  0  0  0
 27 28  1  0  0  0  0
  8 10  1  0  0  0  0
 17 19  1  0  0  0  0
 26 27  1  0  0  0  0
M  END
>  <S/N>
355

>  <Compound ID>
C_372

>  <PubChem CID>
145978101

>  <Isomeric SMILES>
COC1=C(C(=C(C(=C1)C2=CC=C(C=C2)O)OC)O)C3=CC=C(C=C3)OCC=C

>  <IC50 (�M)>
32.2

>  <pIC50>
4.49

$$$$
C_373
Actelion Java MolfileCreator 1.0

 30 32  0  0  0  0  0  0  0  0999 V2000
    5.1962   -0.7500   -0.0000 O   0  0  0  0  0  0  0  0  0  0  0  0
    6.4952   -0.0000   -0.0000 C   0  0  0  0  0  0  0  0  0  0  0  0
    3.8971   -0.0000   -0.0000 C   0  0  0  0  0  0  0  0  0  0  0  0
    7.7942   -0.7500   -0.0000 C   0  0  0  0  0  0  0  0  0  0  0  0
    6.4952    1.5000   -0.0000 C   0  0  0  0  0  0  0  0  0  0  0  0
    2.5981   -0.7500   -0.0000 C   0  0  0  0  0  0  0  0  0  0  0  0
    9.0933   -0.0000   -0.0000 C   0  0  0  0  0  0  0  0  0  0  0  0
    7.7942    2.2500   -0.0000 C   0  0  0  0  0  0  0  0  0  0  0  0
    1.2990   -0.0000   -0.0000 C   0  0  0  0  0  0  0  0  0  0  0  0
    9.0933    1.5000   -0.0000 C   0  0  0  0  0  0  0  0  0  0  0  0
    1.2990    1.5000   -0.0000 C   0  0  0  0  0  0  0  0  0  0  0  0
    0.0000   -0.7500   -0.0000 C   0  0  0  0  0  0  0  0  0  0  0  0
   10.3923    2.2500   -0.0000 C   0  0  0  0  0  0  0  0  0  0  0  0
   11.6913    1.5000   -0.0000 C   0  0  0  0  0  0  0  0  0  0  0  0
   10.3923    3.7500   -0.0000 C   0  0  0  0  0  0  0  0  0  0  0  0
   11.6913   -0.0000   -0.0000 O   0  0  0  0  0  0  0  0  0  0  0  0
   12.9904    2.2500   -0.0000 C   0  0  0  0  0  0  0  0  0  0  0  0
   11.6913    4.5000   -0.0000 C   0  0  0  0  0  0  0  0  0  0  0  0
   12.9904   -0.7500   -0.0000 C   0  0  0  0  0  0  0  0  0  0  0  0
   14.2894    1.5000   -0.0000 O   0  0  0  0  0  0  0  0  0  0  0  0
   12.9904    3.7500   -0.0000 C   0  0  0  0  0  0  0  0  0  0  0  0
   11.6913    6.0000   -0.0000 O   0  0  0  0  0  0  0  0  0  0  0  0
   14.2894    4.5000   -0.0000 C   0  0  0  0  0  0  0  0  0  0  0  0
   10.3923    6.7500   -0.0000 C   0  0  0  0  0  0  0  0  0  0  0  0
   15.5885    3.7500   -0.0000 C   0  0  0  0  0  0  0  0  0  0  0  0
   14.2894    6.0000   -0.0000 C   0  0  0  0  0  0  0  0  0  0  0  0
   16.8875    4.5000   -0.0000 C   0  0  0  0  0  0  0  0  0  0  0  0
   15.5885    6.7500   -0.0000 C   0  0  0  0  0  0  0  0  0  0  0  0
   16.8875    6.0000   -0.0000 C   0  0  0  0  0  0  0  0  0  0  0  0
   18.1865    6.7500   -0.0000 O   0  0  0  0  0  0  0  0  0  0  0  0
  1  2  1  0  0  0  0
  1  3  1  0  0  0  0
  2  4  2  0  0  0  0
  2  5  1  0  0  0  0
  3  6  1  0  0  0  0
  4  7  1  0  0  0  0
  5  8  2  0  0  0  0
  6  9  2  0  0  0  0
  7 10  2  0  0  0  0
  9 11  1  0  0  0  0
  9 12  1  0  0  0  0
 10 13  1  0  0  0  0
 13 14  2  0  0  0  0
 13 15  1  0  0  0  0
 14 16  1  0  0  0  0
 14 17  1  0  0  0  0
 15 18  2  0  0  0  0
 16 19  1  0  0  0  0
 17 20  1  0  0  0  0
 17 21  2  0  0  0  0
 18 22  1  0  0  0  0
 21 23  1  0  0  0  0
 22 24  1  0  0  0  0
 23 25  2  0  0  0  0
 23 26  1  0  0  0  0
 25 27  1  0  0  0  0
 26 28  2  0  0  0  0
 27 29  2  0  0  0  0
 29 30  1  0  0  0  0
  8 10  1  0  0  0  0
 18 21  1  0  0  0  0
 28 29  1  0  0  0  0
M  END
>  <S/N>
356

>  <Compound ID>
C_373

>  <PubChem CID>
145978278

>  <Isomeric SMILES>
CC(=CCOC1=CC=C(C=C1)C2=CC(=C(C(=C2OC)O)C3=CC=C(C=C3)O)OC)C

>  <IC50 (�M)>
20.1

>  <pIC50>
4.7

$$$$
C_374
Actelion Java MolfileCreator 1.0

 28 30  0  0  0  0  0  0  0  0999 V2000
    3.4641   -0.5000   -0.0000 Br  0  0  0  0  0  0  0  0  0  0  0  0
    2.5981   -0.0000   -0.0000 C   0  0  0  0  0  0  0  0  0  0  0  0
    1.7321   -0.5000   -0.0000 C   0  0  0  0  0  0  0  0  0  0  0  0
    0.8660   -0.0000   -0.0000 O   0  0  0  0  0  0  0  0  0  0  0  0
    0.0000   -0.5000   -0.0000 C   0  0  0  0  0  0  0  0  0  0  0  0
   -0.8660    0.0000   -0.0000 C   0  0  0  0  0  0  0  0  0  0  0  0
   -0.0000   -1.5000   -0.0000 C   0  0  0  0  0  0  0  0  0  0  0  0
   -1.7321   -0.5000   -0.0000 C   0  0  0  0  0  0  0  0  0  0  0  0
   -0.8660   -2.0000   -0.0000 C   0  0  0  0  0  0  0  0  0  0  0  0
   -1.7321   -1.5000   -0.0000 C   0  0  0  0  0  0  0  0  0  0  0  0
   -2.5981   -2.0000   -0.0000 C   0  0  0  0  0  0  0  0  0  0  0  0
   -3.4641   -1.5000   -0.0000 C   0  0  0  0  0  0  0  0  0  0  0  0
   -2.5981   -3.0000   -0.0000 C   0  0  0  0  0  0  0  0  0  0  0  0
   -3.4641   -0.5000   -0.0000 O   0  0  0  0  0  0  0  0  0  0  0  0
   -4.3301   -2.0000   -0.0000 C   0  0  0  0  0  0  0  0  0  0  0  0
   -1.7321   -3.5000   -0.0000 O   0  0  0  0  0  0  0  0  0  0  0  0
   -3.4641   -3.5000   -0.0000 C   0  0  0  0  0  0  0  0  0  0  0  0
   -5.1962   -1.5000   -0.0000 O   0  0  0  0  0  0  0  0  0  0  0  0
   -4.3301   -3.0000   -0.0000 C   0  0  0  0  0  0  0  0  0  0  0  0
   -0.8660   -3.0000   -0.0000 C   0  0  0  0  0  0  0  0  0  0  0  0
   -6.0622   -2.0000   -0.0000 C   0  0  0  0  0  0  0  0  0  0  0  0
   -5.1962   -3.5000   -0.0000 C   0  0  0  0  0  0  0  0  0  0  0  0
   -6.0622   -3.0000   -0.0000 C   0  0  0  0  0  0  0  0  0  0  0  0
   -5.1962   -4.5000   -0.0000 C   0  0  0  0  0  0  0  0  0  0  0  0
   -6.9282   -3.5000   -0.0000 C   0  0  0  0  0  0  0  0  0  0  0  0
   -6.0622   -5.0000   -0.0000 C   0  0  0  0  0  0  0  0  0  0  0  0
   -6.9282   -4.5000   -0.0000 C   0  0  0  0  0  0  0  0  0  0  0  0
   -7.7942   -5.0000   -0.0000 O   0  0  0  0  0  0  0  0  0  0  0  0
  1  2  1  0  0  0  0
  2  3  1  0  0  0  0
  3  4  1  0  0  0  0
  4  5  1  0  0  0  0
  5  6  2  0  0  0  0
  5  7  1  0  0  0  0
  6  8  1  0  0  0  0
  7  9  2  0  0  0  0
  8 10  2  0  0  0  0
 10 11  1  0  0  0  0
 11 12  2  0  0  0  0
 11 13  1  0  0  0  0
 12 14  1  0  0  0  0
 12 15  1  0  0  0  0
 13 16  1  0  0  0  0
 13 17  2  0  0  0  0
 15 18  1  0  0  0  0
 15 19  2  0  0  0  0
 16 20  1  0  0  0  0
 18 21  1  0  0  0  0
 19 22  1  0  0  0  0
 22 23  2  0  0  0  0
 22 24  1  0  0  0  0
 23 25  1  0  0  0  0
 24 26  2  0  0  0  0
 25 27  2  0  0  0  0
 27 28  1  0  0  0  0
  9 10  1  0  0  0  0
 17 19  1  0  0  0  0
 26 27  1  0  0  0  0
M  END
>  <S/N>
357

>  <Compound ID>
C_374

>  <PubChem CID>
145978407

>  <Isomeric SMILES>
COC1=C(C(=C(C(=C1)C2=CC=C(C=C2)O)OC)O)C3=CC=C(C=C3)OCCBr

>  <IC50 (�M)>
18

>  <pIC50>
4.74

$$$$
C_375
Actelion Java MolfileCreator 1.0

 23 25  0  0  0  0  0  0  0  0999 V2000
    0.8660   -0.0000   -0.0000 O   0  0  0  0  0  0  0  0  0  0  0  0
    0.0000   -0.5000   -0.0000 C   0  0  0  0  0  0  0  0  0  0  0  0
   -0.8660    0.0000   -0.0000 C   0  0  0  0  0  0  0  0  0  0  0  0
   -0.0000   -1.5000   -0.0000 C   0  0  0  0  0  0  0  0  0  0  0  0
   -0.8660    1.0000   -0.0000 O   0  0  0  0  0  0  0  0  0  0  0  0
   -1.7321   -0.5000   -0.0000 C   0  0  0  0  0  0  0  0  0  0  0  0
    0.8660   -2.0000   -0.0000 C   0  0  0  0  0  0  0  0  0  0  0  0
   -0.8660   -2.0000   -0.0000 C   0  0  0  0  0  0  0  0  0  0  0  0
   -1.7321   -1.5000   -0.0000 C   0  0  0  0  0  0  0  0  0  0  0  0
   -2.5981    0.0000   -0.0000 C   0  0  0  0  0  0  0  0  0  0  0  0
    0.8660   -3.0000   -0.0000 C   0  0  0  0  0  0  0  0  0  0  0  0
    1.7321   -1.5000   -0.0000 C   0  0  0  0  0  0  0  0  0  0  0  0
   -2.5981   -2.0000   -0.0000 O   0  0  0  0  0  0  0  0  0  0  0  0
   -2.5981    1.0000   -0.0000 C   0  0  0  0  0  0  0  0  0  0  0  0
   -3.4641   -0.5000   -0.0000 C   0  0  0  0  0  0  0  0  0  0  0  0
    1.7321   -3.5000   -0.0000 C   0  0  0  0  0  0  0  0  0  0  0  0
    2.5981   -2.0000   -0.0000 C   0  0  0  0  0  0  0  0  0  0  0  0
   -3.4641    1.5000   -0.0000 C   0  0  0  0  0  0  0  0  0  0  0  0
   -4.3301    0.0000   -0.0000 C   0  0  0  0  0  0  0  0  0  0  0  0
    2.5981   -3.0000   -0.0000 C   0  0  0  0  0  0  0  0  0  0  0  0
   -4.3301    1.0000   -0.0000 C   0  0  0  0  0  0  0  0  0  0  0  0
    3.4641   -3.5000   -0.0000 O   0  0  0  0  0  0  0  0  0  0  0  0
   -5.1962    1.5000   -0.0000 O   0  0  0  0  0  0  0  0  0  0  0  0
  1  2  2  0  0  0  0
  2  3  1  0  0  0  0
  2  4  1  0  0  0  0
  3  5  1  0  0  0  0
  3  6  2  0  0  0  0
  4  7  1  0  0  0  0
  4  8  2  0  0  0  0
  6  9  1  0  0  0  0
  6 10  1  0  0  0  0
  7 11  2  0  0  0  0
  7 12  1  0  0  0  0
  9 13  2  0  0  0  0
 10 14  2  0  0  0  0
 10 15  1  0  0  0  0
 11 16  1  0  0  0  0
 12 17  2  0  0  0  0
 14 18  1  0  0  0  0
 15 19  2  0  0  0  0
 16 20  2  0  0  0  0
 18 21  2  0  0  0  0
 20 22  1  0  0  0  0
 21 23  1  0  0  0  0
  8  9  1  0  0  0  0
 17 20  1  0  0  0  0
 19 21  1  0  0  0  0
M  END
>  <S/N>
358

>  <Compound ID>
C_375

>  <PubChem CID>
145978619

>  <Isomeric SMILES>
C1=CC(=CC=C1C2=CC(=O)C(=C(C2=O)O)C3=CC=C(C=C3)O)O

>  <IC50 (�M)>
22.7

>  <pIC50>
4.64

$$$$
C_376
Actelion Java MolfileCreator 1.0

 30 33  0  0  0  0  0  0  0  0999 V2000
    2.8198    4.8479   -0.0000 S   0  0  0  0  0  0  0  0  0  0  0  0
    2.2321    4.0388   -0.0000 C   0  0  0  0  0  0  0  0  0  0  0  0
    2.5411    3.0878   -0.0000 S   0  0  0  0  0  0  0  0  0  0  0  0
    1.2321    4.0388   -0.0000 N   0  0  0  0  0  0  0  0  0  0  0  0
    1.7321    2.5000   -0.0000 C   0  0  0  0  0  0  0  0  0  0  0  0
    0.9230    3.0878   -0.0000 C   0  0  0  0  0  0  0  0  0  0  0  0
    1.7321    1.5000   -0.0000 C   0  0  0  0  0  0  0  0  0  0  0  0
   -0.0280    2.7788   -0.0000 O   0  0  0  0  0  0  0  0  0  0  0  0
    2.5981    1.0000   -0.0000 C   0  0  0  0  0  0  0  0  0  0  0  0
    2.5981   -0.0000   -0.0000 C   0  0  0  0  0  0  0  0  0  0  0  0
    3.4641    1.5000   -0.0000 C   0  0  0  0  0  0  0  0  0  0  0  0
    1.7321   -0.5000   -0.0000 O   0  0  0  0  0  0  0  0  0  0  0  0
    3.4641   -0.5000   -0.0000 C   0  0  0  0  0  0  0  0  0  0  0  0
    4.3301    1.0000   -0.0000 C   0  0  0  0  0  0  0  0  0  0  0  0
    0.8660   -0.0000   -0.0000 C   0  0  0  0  0  0  0  0  0  0  0  0
    4.3301   -0.0000   -0.0000 C   0  0  0  0  0  0  0  0  0  0  0  0
    5.1962    1.5000   -0.0000 N   0  0  0  0  0  0  0  0  0  0  0  0
    0.0000   -0.5000   -0.0000 N   0  0  0  0  0  0  0  0  0  0  0  0
    6.0622    1.0000   -0.0000 O   0  0  0  0  0  0  0  0  0  0  0  0
    5.1962    2.5000   -0.0000 O   0  0  0  0  0  0  0  0  0  0  0  0
   -0.9135   -0.0933   -0.0000 C   0  0  0  0  0  0  0  0  0  0  0  0
   -0.1045   -1.4945   -0.0000 C   0  0  0  0  0  0  0  0  0  0  0  0
   -1.1215    0.8849   -0.0000 O   0  0  0  0  0  0  0  0  0  0  0  0
   -1.5827   -0.8364   -0.0000 C   0  0  0  0  0  0  0  0  0  0  0  0
    0.6386   -2.1637   -0.0000 O   0  0  0  0  0  0  0  0  0  0  0  0
   -1.0827   -1.7024   -0.0000 C   0  0  0  0  0  0  0  0  0  0  0  0
   -2.5827   -0.8364   -0.0000 C   0  0  0  0  0  0  0  0  0  0  0  0
   -1.5827   -2.5685   -0.0000 C   0  0  0  0  0  0  0  0  0  0  0  0
   -3.0827   -1.7024   -0.0000 C   0  0  0  0  0  0  0  0  0  0  0  0
   -2.5827   -2.5685   -0.0000 C   0  0  0  0  0  0  0  0  0  0  0  0
  1  2  2  0  0  0  0
  2  3  1  0  0  0  0
  2  4  1  0  0  0  0
  3  5  1  0  0  0  0
  4  6  1  0  0  0  0
  5  7  2  0  0  0  0
  6  8  2  0  0  0  0
  7  9  1  0  0  0  0
  9 10  2  0  0  0  0
  9 11  1  0  0  0  0
 10 12  1  0  0  0  0
 10 13  1  0  0  0  0
 11 14  2  0  0  0  0
 12 15  1  0  0  0  0
 13 16  2  0  0  0  0
 14 17  1  0  0  0  0
 15 18  1  0  0  0  0
 17 19  2  0  0  0  0
 17 20  1  0  0  0  0
 18 21  1  0  0  0  0
 18 22  1  0  0  0  0
 21 23  2  0  0  0  0
 21 24  1  0  0  0  0
 22 25  2  0  0  0  0
 22 26  1  0  0  0  0
 24 27  2  0  0  0  0
 26 28  2  0  0  0  0
 27 29  1  0  0  0  0
 28 30  1  0  0  0  0
  5  6  1  0  0  0  0
 14 16  1  0  0  0  0
 24 26  1  0  0  0  0
 29 30  2  0  0  0  0
M  CHG  2  17   1  20  -1
M  END
>  <S/N>
359

>  <Compound ID>
C_376

>  <PubChem CID>
145978931

>  <Isomeric SMILES>
C1=CC=C2C(=C1)C(=O)N(C2=O)COC3=C(C=C(C=C3)[N+](=O)[O-])/C=C\4/C(=O)NC(=S)S4

>  <IC50 (�M)>
35.79

>  <pIC50>
4.45

$$$$
C_377
Actelion Java MolfileCreator 1.0

 29 32  0  0  0  0  0  0  0  0999 V2000
    7.5516   -1.1160   -0.0000 S   0  0  0  0  0  0  0  0  0  0  0  0
    7.1449   -0.2024   -0.0000 C   0  0  0  0  0  0  0  0  0  0  0  0
    6.1667    0.0055   -0.0000 S   0  0  0  0  0  0  0  0  0  0  0  0
    7.6449    0.6636   -0.0000 N   0  0  0  0  0  0  0  0  0  0  0  0
    6.0622    1.0000   -0.0000 C   0  0  0  0  0  0  0  0  0  0  0  0
    6.9757    1.4067   -0.0000 C   0  0  0  0  0  0  0  0  0  0  0  0
    5.1962    1.5000   -0.0000 C   0  0  0  0  0  0  0  0  0  0  0  0
    7.1836    2.3849   -0.0000 O   0  0  0  0  0  0  0  0  0  0  0  0
    4.3301    1.0000   -0.0000 C   0  0  0  0  0  0  0  0  0  0  0  0
    3.4641    1.5000   -0.0000 C   0  0  0  0  0  0  0  0  0  0  0  0
    4.3301    0.0000   -0.0000 C   0  0  0  0  0  0  0  0  0  0  0  0
    2.5981    1.0000   -0.0000 C   0  0  0  0  0  0  0  0  0  0  0  0
    3.4641   -0.5000   -0.0000 C   0  0  0  0  0  0  0  0  0  0  0  0
    1.7321    1.5000   -0.0000 O   0  0  0  0  0  0  0  0  0  0  0  0
    2.5981   -0.0000   -0.0000 C   0  0  0  0  0  0  0  0  0  0  0  0
    0.8660    1.0000   -0.0000 C   0  0  0  0  0  0  0  0  0  0  0  0
    1.7321   -0.5000   -0.0000 O   0  0  0  0  0  0  0  0  0  0  0  0
    0.8660   -0.0000   -0.0000 C   0  0  0  0  0  0  0  0  0  0  0  0
    0.0000   -0.5000   -0.0000 N   0  0  0  0  0  0  0  0  0  0  0  0
   -0.9135   -0.0933   -0.0000 C   0  0  0  0  0  0  0  0  0  0  0  0
   -0.1045   -1.4945   -0.0000 C   0  0  0  0  0  0  0  0  0  0  0  0
   -1.1215    0.8849   -0.0000 O   0  0  0  0  0  0  0  0  0  0  0  0
   -1.5827   -0.8364   -0.0000 C   0  0  0  0  0  0  0  0  0  0  0  0
    0.6386   -2.1637   -0.0000 O   0  0  0  0  0  0  0  0  0  0  0  0
   -1.0827   -1.7024   -0.0000 C   0  0  0  0  0  0  0  0  0  0  0  0
   -2.5827   -0.8364   -0.0000 C   0  0  0  0  0  0  0  0  0  0  0  0
   -1.5827   -2.5685   -0.0000 C   0  0  0  0  0  0  0  0  0  0  0  0
   -3.0827   -1.7024   -0.0000 C   0  0  0  0  0  0  0  0  0  0  0  0
   -2.5827   -2.5685   -0.0000 C   0  0  0  0  0  0  0  0  0  0  0  0
  1  2  2  0  0  0  0
  2  3  1  0  0  0  0
  2  4  1  0  0  0  0
  3  5  1  0  0  0  0
  4  6  1  0  0  0  0
  5  7  2  0  0  0  0
  6  8  2  0  0  0  0
  7  9  1  0  0  0  0
  9 10  2  0  0  0  0
  9 11  1  0  0  0  0
 10 12  1  0  0  0  0
 11 13  2  0  0  0  0
 12 14  1  0  0  0  0
 12 15  2  0  0  0  0
 14 16  1  0  0  0  0
 15 17  1  0  0  0  0
 17 18  1  0  0  0  0
 18 19  1  0  0  0  0
 19 20  1  0  0  0  0
 19 21  1  0  0  0  0
 20 22  2  0  0  0  0
 20 23  1  0  0  0  0
 21 24  2  0  0  0  0
 21 25  1  0  0  0  0
 23 26  2  0  0  0  0
 25 27  2  0  0  0  0
 26 28  1  0  0  0  0
 27 29  1  0  0  0  0
  5  6  1  0  0  0  0
 13 15  1  0  0  0  0
 23 25  1  0  0  0  0
 28 29  2  0  0  0  0
M  END
>  <S/N>
360

>  <Compound ID>
C_377

>  <PubChem CID>
145979451

>  <Isomeric SMILES>
COC1=C(C=CC(=C1)/C=C\2/C(=O)NC(=S)S2)OCN3C(=O)C4=CC=CC=C4C3=O

>  <IC50 (�M)>
16.11

>  <pIC50>
4.79

$$$$
C_378
Actelion Java MolfileCreator 1.0

 30 33  0  0  0  0  0  0  0  0999 V2000
    7.5516   -1.1160   -0.0000 S   0  0  0  0  0  0  0  0  0  0  0  0
    7.1449   -0.2024   -0.0000 C   0  0  0  0  0  0  0  0  0  0  0  0
    6.1667    0.0055   -0.0000 S   0  0  0  0  0  0  0  0  0  0  0  0
    7.6449    0.6636   -0.0000 N   0  0  0  0  0  0  0  0  0  0  0  0
    6.0622    1.0000   -0.0000 C   0  0  0  0  0  0  0  0  0  0  0  0
    6.9757    1.4067   -0.0000 C   0  0  0  0  0  0  0  0  0  0  0  0
    5.1962    1.5000   -0.0000 C   0  0  0  0  0  0  0  0  0  0  0  0
    7.1836    2.3849   -0.0000 O   0  0  0  0  0  0  0  0  0  0  0  0
    4.3301    1.0000   -0.0000 C   0  0  0  0  0  0  0  0  0  0  0  0
    3.4641    1.5000   -0.0000 C   0  0  0  0  0  0  0  0  0  0  0  0
    4.3301    0.0000   -0.0000 C   0  0  0  0  0  0  0  0  0  0  0  0
    2.5981    1.0000   -0.0000 C   0  0  0  0  0  0  0  0  0  0  0  0
    3.4641   -0.5000   -0.0000 C   0  0  0  0  0  0  0  0  0  0  0  0
    1.7321    1.5000   -0.0000 O   0  0  0  0  0  0  0  0  0  0  0  0
    2.5981   -0.0000   -0.0000 C   0  0  0  0  0  0  0  0  0  0  0  0
    1.7321    2.5000   -0.0000 C   0  0  0  0  0  0  0  0  0  0  0  0
    1.7321   -0.5000   -0.0000 O   0  0  0  0  0  0  0  0  0  0  0  0
    0.8660    3.0000   -0.0000 C   0  0  0  0  0  0  0  0  0  0  0  0
    0.8660   -0.0000   -0.0000 C   0  0  0  0  0  0  0  0  0  0  0  0
    0.0000   -0.5000   -0.0000 N   0  0  0  0  0  0  0  0  0  0  0  0
   -0.9135   -0.0933   -0.0000 C   0  0  0  0  0  0  0  0  0  0  0  0
   -0.1045   -1.4945   -0.0000 C   0  0  0  0  0  0  0  0  0  0  0  0
   -1.1215    0.8849   -0.0000 O   0  0  0  0  0  0  0  0  0  0  0  0
   -1.5827   -0.8364   -0.0000 C   0  0  0  0  0  0  0  0  0  0  0  0
    0.6386   -2.1637   -0.0000 O   0  0  0  0  0  0  0  0  0  0  0  0
   -1.0827   -1.7024   -0.0000 C   0  0  0  0  0  0  0  0  0  0  0  0
   -2.5827   -0.8364   -0.0000 C   0  0  0  0  0  0  0  0  0  0  0  0
   -1.5827   -2.5685   -0.0000 C   0  0  0  0  0  0  0  0  0  0  0  0
   -3.0827   -1.7024   -0.0000 C   0  0  0  0  0  0  0  0  0  0  0  0
   -2.5827   -2.5685   -0.0000 C   0  0  0  0  0  0  0  0  0  0  0  0
  1  2  2  0  0  0  0
  2  3  1  0  0  0  0
  2  4  1  0  0  0  0
  3  5  1  0  0  0  0
  4  6  1  0  0  0  0
  5  7  2  0  0  0  0
  6  8  2  0  0  0  0
  7  9  1  0  0  0  0
  9 10  2  0  0  0  0
  9 11  1  0  0  0  0
 10 12  1  0  0  0  0
 11 13  2  0  0  0  0
 12 14  1  0  0  0  0
 12 15  2  0  0  0  0
 14 16  1  0  0  0  0
 15 17  1  0  0  0  0
 16 18  1  0  0  0  0
 17 19  1  0  0  0  0
 19 20  1  0  0  0  0
 20 21  1  0  0  0  0
 20 22  1  0  0  0  0
 21 23  2  0  0  0  0
 21 24  1  0  0  0  0
 22 25  2  0  0  0  0
 22 26  1  0  0  0  0
 24 27  2  0  0  0  0
 26 28  2  0  0  0  0
 27 29  1  0  0  0  0
 28 30  1  0  0  0  0
  5  6  1  0  0  0  0
 13 15  1  0  0  0  0
 24 26  1  0  0  0  0
 29 30  2  0  0  0  0
M  END
>  <S/N>
361

>  <Compound ID>
C_378

>  <PubChem CID>
145979918

>  <Isomeric SMILES>
CCOC1=C(C=CC(=C1)/C=C\2/C(=O)NC(=S)S2)OCN3C(=O)C4=CC=CC=C4C3=O

>  <IC50 (�M)>
7.72

>  <pIC50>
5.11

$$$$
C_379
Actelion Java MolfileCreator 1.0

 31 34  0  0  0  0  0  0  0  0999 V2000
    7.5516   -1.1160   -0.0000 S   0  0  0  0  0  0  0  0  0  0  0  0
    7.1449   -0.2024   -0.0000 C   0  0  0  0  0  0  0  0  0  0  0  0
    6.1667    0.0055   -0.0000 S   0  0  0  0  0  0  0  0  0  0  0  0
    7.6449    0.6636   -0.0000 N   0  0  0  0  0  0  0  0  0  0  0  0
    6.0622    1.0000   -0.0000 C   0  0  0  0  0  0  0  0  0  0  0  0
    6.9757    1.4067   -0.0000 C   0  0  0  0  0  0  0  0  0  0  0  0
    5.1962    1.5000   -0.0000 C   0  0  0  0  0  0  0  0  0  0  0  0
    7.1836    2.3849   -0.0000 O   0  0  0  0  0  0  0  0  0  0  0  0
    4.3301    1.0000   -0.0000 C   0  0  0  0  0  0  0  0  0  0  0  0
    3.4641    1.5000   -0.0000 C   0  0  0  0  0  0  0  0  0  0  0  0
    4.3301    0.0000   -0.0000 C   0  0  0  0  0  0  0  0  0  0  0  0
    2.5981    1.0000   -0.0000 C   0  0  0  0  0  0  0  0  0  0  0  0
    3.4641   -0.5000   -0.0000 C   0  0  0  0  0  0  0  0  0  0  0  0
    1.7321    1.5000   -0.0000 O   0  0  0  0  0  0  0  0  0  0  0  0
    2.5981   -0.0000   -0.0000 C   0  0  0  0  0  0  0  0  0  0  0  0
    3.4641   -1.5000   -0.0000 O   0  0  0  0  0  0  0  0  0  0  0  0
    0.8660    1.0000   -0.0000 C   0  0  0  0  0  0  0  0  0  0  0  0
    1.7321   -0.5000   -0.0000 O   0  0  0  0  0  0  0  0  0  0  0  0
    4.3301   -2.0000   -0.0000 C   0  0  0  0  0  0  0  0  0  0  0  0
    0.8660   -0.0000   -0.0000 C   0  0  0  0  0  0  0  0  0  0  0  0
    0.0000   -0.5000   -0.0000 N   0  0  0  0  0  0  0  0  0  0  0  0
   -0.9135   -0.0933   -0.0000 C   0  0  0  0  0  0  0  0  0  0  0  0
   -0.1045   -1.4945   -0.0000 C   0  0  0  0  0  0  0  0  0  0  0  0
   -1.1215    0.8849   -0.0000 O   0  0  0  0  0  0  0  0  0  0  0  0
   -1.5827   -0.8364   -0.0000 C   0  0  0  0  0  0  0  0  0  0  0  0
    0.6386   -2.1637   -0.0000 O   0  0  0  0  0  0  0  0  0  0  0  0
   -1.0827   -1.7024   -0.0000 C   0  0  0  0  0  0  0  0  0  0  0  0
   -2.5827   -0.8364   -0.0000 C   0  0  0  0  0  0  0  0  0  0  0  0
   -1.5827   -2.5685   -0.0000 C   0  0  0  0  0  0  0  0  0  0  0  0
   -3.0827   -1.7024   -0.0000 C   0  0  0  0  0  0  0  0  0  0  0  0
   -2.5827   -2.5685   -0.0000 C   0  0  0  0  0  0  0  0  0  0  0  0
  1  2  2  0  0  0  0
  2  3  1  0  0  0  0
  2  4  1  0  0  0  0
  3  5  1  0  0  0  0
  4  6  1  0  0  0  0
  5  7  2  0  0  0  0
  6  8  2  0  0  0  0
  7  9  1  0  0  0  0
  9 10  2  0  0  0  0
  9 11  1  0  0  0  0
 10 12  1  0  0  0  0
 11 13  2  0  0  0  0
 12 14  1  0  0  0  0
 12 15  2  0  0  0  0
 13 16  1  0  0  0  0
 14 17  1  0  0  0  0
 15 18  1  0  0  0  0
 16 19  1  0  0  0  0
 18 20  1  0  0  0  0
 20 21  1  0  0  0  0
 21 22  1  0  0  0  0
 21 23  1  0  0  0  0
 22 24  2  0  0  0  0
 22 25  1  0  0  0  0
 23 26  2  0  0  0  0
 23 27  1  0  0  0  0
 25 28  2  0  0  0  0
 27 29  2  0  0  0  0
 28 30  1  0  0  0  0
 29 31  1  0  0  0  0
  5  6  1  0  0  0  0
 13 15  1  0  0  0  0
 25 27  1  0  0  0  0
 30 31  2  0  0  0  0
M  END
>  <S/N>
362

>  <Compound ID>
C_379

>  <PubChem CID>
145981550

>  <Isomeric SMILES>
COC1=CC(=CC(=C1OCN2C(=O)C3=CC=CC=C3C2=O)OC)/C=C\4/C(=O)NC(=S)S4

>  <IC50 (�M)>
39.81

>  <pIC50>
4.4

$$$$
C_380
Actelion Java MolfileCreator 1.0

 29 32  0  0  0  0  0  0  0  0999 V2000
    6.1667    0.0055   -0.0000 S   0  0  0  0  0  0  0  0  0  0  0  0
    7.1449   -0.2024   -0.0000 C   0  0  0  0  0  0  0  0  0  0  0  0
    6.0622    1.0000   -0.0000 C   0  0  0  0  0  0  0  0  0  0  0  0
    7.5516   -1.1160   -0.0000 O   0  0  0  0  0  0  0  0  0  0  0  0
    7.6449    0.6636   -0.0000 N   0  0  0  0  0  0  0  0  0  0  0  0
    6.9757    1.4067   -0.0000 C   0  0  0  0  0  0  0  0  0  0  0  0
    5.1962    1.5000   -0.0000 C   0  0  0  0  0  0  0  0  0  0  0  0
    7.1836    2.3849   -0.0000 O   0  0  0  0  0  0  0  0  0  0  0  0
    4.3301    1.0000   -0.0000 C   0  0  0  0  0  0  0  0  0  0  0  0
    3.4641    1.5000   -0.0000 C   0  0  0  0  0  0  0  0  0  0  0  0
    4.3301    0.0000   -0.0000 C   0  0  0  0  0  0  0  0  0  0  0  0
    2.5981    1.0000   -0.0000 C   0  0  0  0  0  0  0  0  0  0  0  0
    3.4641   -0.5000   -0.0000 C   0  0  0  0  0  0  0  0  0  0  0  0
    1.7321    1.5000   -0.0000 O   0  0  0  0  0  0  0  0  0  0  0  0
    2.5981   -0.0000   -0.0000 C   0  0  0  0  0  0  0  0  0  0  0  0
    0.8660    1.0000   -0.0000 C   0  0  0  0  0  0  0  0  0  0  0  0
    1.7321   -0.5000   -0.0000 O   0  0  0  0  0  0  0  0  0  0  0  0
    0.8660   -0.0000   -0.0000 C   0  0  0  0  0  0  0  0  0  0  0  0
    0.0000   -0.5000   -0.0000 N   0  0  0  0  0  0  0  0  0  0  0  0
   -0.9135   -0.0933   -0.0000 C   0  0  0  0  0  0  0  0  0  0  0  0
   -0.1045   -1.4945   -0.0000 C   0  0  0  0  0  0  0  0  0  0  0  0
   -1.1215    0.8849   -0.0000 O   0  0  0  0  0  0  0  0  0  0  0  0
   -1.5827   -0.8364   -0.0000 C   0  0  0  0  0  0  0  0  0  0  0  0
    0.6386   -2.1637   -0.0000 O   0  0  0  0  0  0  0  0  0  0  0  0
   -1.0827   -1.7024   -0.0000 C   0  0  0  0  0  0  0  0  0  0  0  0
   -2.5827   -0.8364   -0.0000 C   0  0  0  0  0  0  0  0  0  0  0  0
   -1.5827   -2.5685   -0.0000 C   0  0  0  0  0  0  0  0  0  0  0  0
   -3.0827   -1.7024   -0.0000 C   0  0  0  0  0  0  0  0  0  0  0  0
   -2.5827   -2.5685   -0.0000 C   0  0  0  0  0  0  0  0  0  0  0  0
  1  2  1  0  0  0  0
  1  3  1  0  0  0  0
  2  4  2  0  0  0  0
  2  5  1  0  0  0  0
  3  6  1  0  0  0  0
  3  7  2  0  0  0  0
  6  8  2  0  0  0  0
  7  9  1  0  0  0  0
  9 10  2  0  0  0  0
  9 11  1  0  0  0  0
 10 12  1  0  0  0  0
 11 13  2  0  0  0  0
 12 14  1  0  0  0  0
 12 15  2  0  0  0  0
 14 16  1  0  0  0  0
 15 17  1  0  0  0  0
 17 18  1  0  0  0  0
 18 19  1  0  0  0  0
 19 20  1  0  0  0  0
 19 21  1  0  0  0  0
 20 22  2  0  0  0  0
 20 23  1  0  0  0  0
 21 24  2  0  0  0  0
 21 25  1  0  0  0  0
 23 26  2  0  0  0  0
 25 27  2  0  0  0  0
 26 28  1  0  0  0  0
 27 29  1  0  0  0  0
  5  6  1  0  0  0  0
 13 15  1  0  0  0  0
 23 25  1  0  0  0  0
 28 29  2  0  0  0  0
M  END
>  <S/N>
363

>  <Compound ID>
C_380

>  <PubChem CID>
145984650

>  <Isomeric SMILES>
COC1=C(C=CC(=C1)/C=C\2/C(=O)NC(=O)S2)OCN3C(=O)C4=CC=CC=C4C3=O

>  <IC50 (�M)>
35.14

>  <pIC50>
4.45

$$$$
C_381
Actelion Java MolfileCreator 1.0

 30 33  0  0  0  0  0  0  0  0999 V2000
    2.5411    3.0878   -0.0000 S   0  0  0  0  0  0  0  0  0  0  0  0
    2.2321    4.0388   -0.0000 C   0  0  0  0  0  0  0  0  0  0  0  0
    1.7321    2.5000   -0.0000 C   0  0  0  0  0  0  0  0  0  0  0  0
    2.8198    4.8479   -0.0000 O   0  0  0  0  0  0  0  0  0  0  0  0
    1.2321    4.0388   -0.0000 N   0  0  0  0  0  0  0  0  0  0  0  0
    0.9230    3.0878   -0.0000 C   0  0  0  0  0  0  0  0  0  0  0  0
    1.7321    1.5000   -0.0000 C   0  0  0  0  0  0  0  0  0  0  0  0
   -0.0280    2.7788   -0.0000 O   0  0  0  0  0  0  0  0  0  0  0  0
    2.5981    1.0000   -0.0000 C   0  0  0  0  0  0  0  0  0  0  0  0
    2.5981   -0.0000   -0.0000 C   0  0  0  0  0  0  0  0  0  0  0  0
    3.4641    1.5000   -0.0000 C   0  0  0  0  0  0  0  0  0  0  0  0
    1.7321   -0.5000   -0.0000 O   0  0  0  0  0  0  0  0  0  0  0  0
    3.4641   -0.5000   -0.0000 C   0  0  0  0  0  0  0  0  0  0  0  0
    4.3301    1.0000   -0.0000 C   0  0  0  0  0  0  0  0  0  0  0  0
    0.8660   -0.0000   -0.0000 C   0  0  0  0  0  0  0  0  0  0  0  0
    4.3301   -0.0000   -0.0000 C   0  0  0  0  0  0  0  0  0  0  0  0
    5.1962    1.5000   -0.0000 N   0  0  0  0  0  0  0  0  0  0  0  0
    0.0000   -0.5000   -0.0000 N   0  0  0  0  0  0  0  0  0  0  0  0
    6.0622    1.0000   -0.0000 O   0  0  0  0  0  0  0  0  0  0  0  0
    5.1962    2.5000   -0.0000 O   0  0  0  0  0  0  0  0  0  0  0  0
   -0.9135   -0.0933   -0.0000 C   0  0  0  0  0  0  0  0  0  0  0  0
   -0.1045   -1.4945   -0.0000 C   0  0  0  0  0  0  0  0  0  0  0  0
   -1.1215    0.8849   -0.0000 O   0  0  0  0  0  0  0  0  0  0  0  0
   -1.5827   -0.8364   -0.0000 C   0  0  0  0  0  0  0  0  0  0  0  0
    0.6386   -2.1637   -0.0000 O   0  0  0  0  0  0  0  0  0  0  0  0
   -1.0827   -1.7024   -0.0000 C   0  0  0  0  0  0  0  0  0  0  0  0
   -2.5827   -0.8364   -0.0000 C   0  0  0  0  0  0  0  0  0  0  0  0
   -1.5827   -2.5685   -0.0000 C   0  0  0  0  0  0  0  0  0  0  0  0
   -3.0827   -1.7024   -0.0000 C   0  0  0  0  0  0  0  0  0  0  0  0
   -2.5827   -2.5685   -0.0000 C   0  0  0  0  0  0  0  0  0  0  0  0
  1  2  1  0  0  0  0
  1  3  1  0  0  0  0
  2  4  2  0  0  0  0
  2  5  1  0  0  0  0
  3  6  1  0  0  0  0
  3  7  2  0  0  0  0
  6  8  2  0  0  0  0
  7  9  1  0  0  0  0
  9 10  2  0  0  0  0
  9 11  1  0  0  0  0
 10 12  1  0  0  0  0
 10 13  1  0  0  0  0
 11 14  2  0  0  0  0
 12 15  1  0  0  0  0
 13 16  2  0  0  0  0
 14 17  1  0  0  0  0
 15 18  1  0  0  0  0
 17 19  2  0  0  0  0
 17 20  1  0  0  0  0
 18 21  1  0  0  0  0
 18 22  1  0  0  0  0
 21 23  2  0  0  0  0
 21 24  1  0  0  0  0
 22 25  2  0  0  0  0
 22 26  1  0  0  0  0
 24 27  2  0  0  0  0
 26 28  2  0  0  0  0
 27 29  1  0  0  0  0
 28 30  1  0  0  0  0
  5  6  1  0  0  0  0
 14 16  1  0  0  0  0
 24 26  1  0  0  0  0
 29 30  2  0  0  0  0
M  CHG  2  17   1  20  -1
M  END
>  <S/N>
364

>  <Compound ID>
C_381

>  <PubChem CID>
145984653

>  <Isomeric SMILES>
C1=CC=C2C(=C1)C(=O)N(C2=O)COC3=C(C=C(C=C3)[N+](=O)[O-])/C=C\4/C(=O)NC(=O)S4

>  <IC50 (�M)>
50.45

>  <pIC50>
4.3

$$$$
C_382
Actelion Java MolfileCreator 1.0

 30 33  0  0  0  0  0  0  0  0999 V2000
    6.1667    0.0055   -0.0000 S   0  0  0  0  0  0  0  0  0  0  0  0
    7.1449   -0.2024   -0.0000 C   0  0  0  0  0  0  0  0  0  0  0  0
    6.0622    1.0000   -0.0000 C   0  0  0  0  0  0  0  0  0  0  0  0
    7.5516   -1.1160   -0.0000 O   0  0  0  0  0  0  0  0  0  0  0  0
    7.6449    0.6636   -0.0000 N   0  0  0  0  0  0  0  0  0  0  0  0
    6.9757    1.4067   -0.0000 C   0  0  0  0  0  0  0  0  0  0  0  0
    5.1962    1.5000   -0.0000 C   0  0  0  0  0  0  0  0  0  0  0  0
    7.1836    2.3849   -0.0000 O   0  0  0  0  0  0  0  0  0  0  0  0
    4.3301    1.0000   -0.0000 C   0  0  0  0  0  0  0  0  0  0  0  0
    3.4641    1.5000   -0.0000 C   0  0  0  0  0  0  0  0  0  0  0  0
    4.3301    0.0000   -0.0000 C   0  0  0  0  0  0  0  0  0  0  0  0
    2.5981    1.0000   -0.0000 C   0  0  0  0  0  0  0  0  0  0  0  0
    3.4641   -0.5000   -0.0000 C   0  0  0  0  0  0  0  0  0  0  0  0
    1.7321    1.5000   -0.0000 N   0  0  0  0  0  0  0  0  0  0  0  0
    2.5981   -0.0000   -0.0000 C   0  0  0  0  0  0  0  0  0  0  0  0
    1.7321    2.5000   -0.0000 O   0  0  0  0  0  0  0  0  0  0  0  0
    0.8660    1.0000   -0.0000 O   0  0  0  0  0  0  0  0  0  0  0  0
    1.7321   -0.5000   -0.0000 O   0  0  0  0  0  0  0  0  0  0  0  0
    0.8660   -0.0000   -0.0000 C   0  0  0  0  0  0  0  0  0  0  0  0
    0.0000   -0.5000   -0.0000 N   0  0  0  0  0  0  0  0  0  0  0  0
   -0.9135   -0.0933   -0.0000 C   0  0  0  0  0  0  0  0  0  0  0  0
   -0.1045   -1.4945   -0.0000 C   0  0  0  0  0  0  0  0  0  0  0  0
   -1.1215    0.8849   -0.0000 O   0  0  0  0  0  0  0  0  0  0  0  0
   -1.5827   -0.8364   -0.0000 C   0  0  0  0  0  0  0  0  0  0  0  0
    0.6386   -2.1637   -0.0000 O   0  0  0  0  0  0  0  0  0  0  0  0
   -1.0827   -1.7024   -0.0000 C   0  0  0  0  0  0  0  0  0  0  0  0
   -2.5827   -0.8364   -0.0000 C   0  0  0  0  0  0  0  0  0  0  0  0
   -1.5827   -2.5685   -0.0000 C   0  0  0  0  0  0  0  0  0  0  0  0
   -3.0827   -1.7024   -0.0000 C   0  0  0  0  0  0  0  0  0  0  0  0
   -2.5827   -2.5685   -0.0000 C   0  0  0  0  0  0  0  0  0  0  0  0
  1  2  1  0  0  0  0
  1  3  1  0  0  0  0
  2  4  2  0  0  0  0
  2  5  1  0  0  0  0
  3  6  1  0  0  0  0
  3  7  2  0  0  0  0
  6  8  2  0  0  0  0
  7  9  1  0  0  0  0
  9 10  2  0  0  0  0
  9 11  1  0  0  0  0
 10 12  1  0  0  0  0
 11 13  2  0  0  0  0
 12 14  1  0  0  0  0
 12 15  2  0  0  0  0
 14 16  2  0  0  0  0
 14 17  1  0  0  0  0
 15 18  1  0  0  0  0
 18 19  1  0  0  0  0
 19 20  1  0  0  0  0
 20 21  1  0  0  0  0
 20 22  1  0  0  0  0
 21 23  2  0  0  0  0
 21 24  1  0  0  0  0
 22 25  2  0  0  0  0
 22 26  1  0  0  0  0
 24 27  2  0  0  0  0
 26 28  2  0  0  0  0
 27 29  1  0  0  0  0
 28 30  1  0  0  0  0
  5  6  1  0  0  0  0
 13 15  1  0  0  0  0
 24 26  1  0  0  0  0
 29 30  2  0  0  0  0
M  CHG  2  14   1  17  -1
M  END
>  <S/N>
365

>  <Compound ID>
C_382

>  <PubChem CID>
145985850

>  <Isomeric SMILES>
C1=CC=C2C(=C1)C(=O)N(C2=O)COC3=C(C=C(C=C3)/C=C\4/C(=O)NC(=O)S4)[N+](=O)[O-]

>  <IC50 (�M)>
22.48

>  <pIC50>
4.65

$$$$
C_383
Actelion Java MolfileCreator 1.0

 27 30  0  0  0  0  0  0  0  0999 V2000
    6.9073    3.2319   -0.0000 S   0  0  0  0  0  0  0  0  0  0  0  0
    5.9128    3.3364   -0.0000 C   0  0  0  0  0  0  0  0  0  0  0  0
    5.2437    2.5933   -0.0000 S   0  0  0  0  0  0  0  0  0  0  0  0
    5.4128    4.2024   -0.0000 N   0  0  0  0  0  0  0  0  0  0  0  0
    4.3301    3.0000   -0.0000 C   0  0  0  0  0  0  0  0  0  0  0  0
    4.4347    3.9945   -0.0000 C   0  0  0  0  0  0  0  0  0  0  0  0
    3.4641    2.5000   -0.0000 C   0  0  0  0  0  0  0  0  0  0  0  0
    3.6915    4.6637   -0.0000 O   0  0  0  0  0  0  0  0  0  0  0  0
    3.4641    1.5000   -0.0000 C   0  0  0  0  0  0  0  0  0  0  0  0
    2.5981    1.0000   -0.0000 C   0  0  0  0  0  0  0  0  0  0  0  0
    4.3301    1.0000   -0.0000 C   0  0  0  0  0  0  0  0  0  0  0  0
    2.5981   -0.0000   -0.0000 C   0  0  0  0  0  0  0  0  0  0  0  0
    4.3301   -0.0000   -0.0000 C   0  0  0  0  0  0  0  0  0  0  0  0
    1.7321   -0.5000   -0.0000 O   0  0  0  0  0  0  0  0  0  0  0  0
    3.4641   -0.5000   -0.0000 C   0  0  0  0  0  0  0  0  0  0  0  0
    0.8660   -0.0000   -0.0000 C   0  0  0  0  0  0  0  0  0  0  0  0
    0.0000   -0.5000   -0.0000 N   0  0  0  0  0  0  0  0  0  0  0  0
   -0.9135   -0.0933   -0.0000 C   0  0  0  0  0  0  0  0  0  0  0  0
   -0.1045   -1.4945   -0.0000 C   0  0  0  0  0  0  0  0  0  0  0  0
   -1.1215    0.8849   -0.0000 O   0  0  0  0  0  0  0  0  0  0  0  0
   -1.5827   -0.8364   -0.0000 C   0  0  0  0  0  0  0  0  0  0  0  0
    0.6386   -2.1637   -0.0000 O   0  0  0  0  0  0  0  0  0  0  0  0
   -1.0827   -1.7024   -0.0000 C   0  0  0  0  0  0  0  0  0  0  0  0
   -2.5827   -0.8364   -0.0000 C   0  0  0  0  0  0  0  0  0  0  0  0
   -1.5827   -2.5685   -0.0000 C   0  0  0  0  0  0  0  0  0  0  0  0
   -3.0827   -1.7024   -0.0000 C   0  0  0  0  0  0  0  0  0  0  0  0
   -2.5827   -2.5685   -0.0000 C   0  0  0  0  0  0  0  0  0  0  0  0
  1  2  2  0  0  0  0
  2  3  1  0  0  0  0
  2  4  1  0  0  0  0
  3  5  1  0  0  0  0
  4  6  1  0  0  0  0
  5  7  2  0  0  0  0
  6  8  2  0  0  0  0
  7  9  1  0  0  0  0
  9 10  2  0  0  0  0
  9 11  1  0  0  0  0
 10 12  1  0  0  0  0
 11 13  2  0  0  0  0
 12 14  1  0  0  0  0
 12 15  2  0  0  0  0
 14 16  1  0  0  0  0
 16 17  1  0  0  0  0
 17 18  1  0  0  0  0
 17 19  1  0  0  0  0
 18 20  2  0  0  0  0
 18 21  1  0  0  0  0
 19 22  2  0  0  0  0
 19 23  1  0  0  0  0
 21 24  2  0  0  0  0
 23 25  2  0  0  0  0
 24 26  1  0  0  0  0
 25 27  1  0  0  0  0
  5  6  1  0  0  0  0
 13 15  1  0  0  0  0
 21 23  1  0  0  0  0
 26 27  2  0  0  0  0
M  END
>  <S/N>
366

>  <Compound ID>
C_383

>  <PubChem CID>
145986556

>  <Isomeric SMILES>
C1=CC=C2C(=C1)C(=O)N(C2=O)COC3=CC=CC(=C3)/C=C\4/C(=O)NC(=S)S4

>  <IC50 (�M)>
33.98

>  <pIC50>
4.47

$$$$
C_384
Actelion Java MolfileCreator 1.0

 28 31  0  0  0  0  0  0  0  0999 V2000
    1.7321    1.5000   -0.0000 Cl  0  0  0  0  0  0  0  0  0  0  0  0
    2.5981    1.0000   -0.0000 C   0  0  0  0  0  0  0  0  0  0  0  0
    2.5981   -0.0000   -0.0000 C   0  0  0  0  0  0  0  0  0  0  0  0
    3.4641    1.5000   -0.0000 C   0  0  0  0  0  0  0  0  0  0  0  0
    1.7321   -0.5000   -0.0000 O   0  0  0  0  0  0  0  0  0  0  0  0
    3.4641   -0.5000   -0.0000 C   0  0  0  0  0  0  0  0  0  0  0  0
    4.3301    1.0000   -0.0000 C   0  0  0  0  0  0  0  0  0  0  0  0
    0.8660   -0.0000   -0.0000 C   0  0  0  0  0  0  0  0  0  0  0  0
    4.3301   -0.0000   -0.0000 C   0  0  0  0  0  0  0  0  0  0  0  0
    5.1962    1.5000   -0.0000 C   0  0  0  0  0  0  0  0  0  0  0  0
    0.0000   -0.5000   -0.0000 N   0  0  0  0  0  0  0  0  0  0  0  0
    5.1962    2.5000   -0.0000 C   0  0  0  0  0  0  0  0  0  0  0  0
   -0.9135   -0.0933   -0.0000 C   0  0  0  0  0  0  0  0  0  0  0  0
   -0.1045   -1.4945   -0.0000 C   0  0  0  0  0  0  0  0  0  0  0  0
    4.3871    3.0878   -0.0000 S   0  0  0  0  0  0  0  0  0  0  0  0
    6.0052    3.0878   -0.0000 C   0  0  0  0  0  0  0  0  0  0  0  0
   -1.1215    0.8849   -0.0000 O   0  0  0  0  0  0  0  0  0  0  0  0
   -1.5827   -0.8364   -0.0000 C   0  0  0  0  0  0  0  0  0  0  0  0
    0.6386   -2.1637   -0.0000 O   0  0  0  0  0  0  0  0  0  0  0  0
   -1.0827   -1.7024   -0.0000 C   0  0  0  0  0  0  0  0  0  0  0  0
    4.6962    4.0388   -0.0000 C   0  0  0  0  0  0  0  0  0  0  0  0
    6.9562    2.7788   -0.0000 O   0  0  0  0  0  0  0  0  0  0  0  0
    5.6962    4.0388   -0.0000 N   0  0  0  0  0  0  0  0  0  0  0  0
   -2.5827   -0.8364   -0.0000 C   0  0  0  0  0  0  0  0  0  0  0  0
   -1.5827   -2.5685   -0.0000 C   0  0  0  0  0  0  0  0  0  0  0  0
    4.1084    4.8479   -0.0000 O   0  0  0  0  0  0  0  0  0  0  0  0
   -3.0827   -1.7024   -0.0000 C   0  0  0  0  0  0  0  0  0  0  0  0
   -2.5827   -2.5685   -0.0000 C   0  0  0  0  0  0  0  0  0  0  0  0
  1  2  1  0  0  0  0
  2  3  2  0  0  0  0
  2  4  1  0  0  0  0
  3  5  1  0  0  0  0
  3  6  1  0  0  0  0
  4  7  2  0  0  0  0
  5  8  1  0  0  0  0
  6  9  2  0  0  0  0
  7 10  1  0  0  0  0
  8 11  1  0  0  0  0
 10 12  2  0  0  0  0
 11 13  1  0  0  0  0
 11 14  1  0  0  0  0
 12 15  1  0  0  0  0
 12 16  1  0  0  0  0
 13 17  2  0  0  0  0
 13 18  1  0  0  0  0
 14 19  2  0  0  0  0
 14 20  1  0  0  0  0
 15 21  1  0  0  0  0
 16 22  2  0  0  0  0
 16 23  1  0  0  0  0
 18 24  2  0  0  0  0
 20 25  2  0  0  0  0
 21 26  2  0  0  0  0
 24 27  1  0  0  0  0
 25 28  1  0  0  0  0
  7  9  1  0  0  0  0
 18 20  1  0  0  0  0
 21 23  1  0  0  0  0
 27 28  2  0  0  0  0
M  END
>  <S/N>
367

>  <Compound ID>
C_384

>  <PubChem CID>
145986665

>  <Isomeric SMILES>
C1=CC=C2C(=C1)C(=O)N(C2=O)COC3=C(C=C(C=C3)/C=C\4/C(=O)NC(=O)S4)Cl

>  <IC50 (�M)>
20.95

>  <pIC50>
4.68

$$$$
C_385
Actelion Java MolfileCreator 1.0

 28 31  0  0  0  0  0  0  0  0999 V2000
    1.7321    1.5000   -0.0000 Cl  0  0  0  0  0  0  0  0  0  0  0  0
    2.5981    1.0000   -0.0000 C   0  0  0  0  0  0  0  0  0  0  0  0
    2.5981   -0.0000   -0.0000 C   0  0  0  0  0  0  0  0  0  0  0  0
    3.4641    1.5000   -0.0000 C   0  0  0  0  0  0  0  0  0  0  0  0
    1.7321   -0.5000   -0.0000 O   0  0  0  0  0  0  0  0  0  0  0  0
    3.4641   -0.5000   -0.0000 C   0  0  0  0  0  0  0  0  0  0  0  0
    4.3301    1.0000   -0.0000 C   0  0  0  0  0  0  0  0  0  0  0  0
    0.8660   -0.0000   -0.0000 C   0  0  0  0  0  0  0  0  0  0  0  0
    4.3301   -0.0000   -0.0000 C   0  0  0  0  0  0  0  0  0  0  0  0
    5.1962    1.5000   -0.0000 C   0  0  0  0  0  0  0  0  0  0  0  0
    0.0000   -0.5000   -0.0000 N   0  0  0  0  0  0  0  0  0  0  0  0
    5.1962    2.5000   -0.0000 C   0  0  0  0  0  0  0  0  0  0  0  0
   -0.9135   -0.0933   -0.0000 C   0  0  0  0  0  0  0  0  0  0  0  0
   -0.1045   -1.4945   -0.0000 C   0  0  0  0  0  0  0  0  0  0  0  0
    4.3871    3.0878   -0.0000 S   0  0  0  0  0  0  0  0  0  0  0  0
    6.0052    3.0878   -0.0000 C   0  0  0  0  0  0  0  0  0  0  0  0
   -1.1215    0.8849   -0.0000 O   0  0  0  0  0  0  0  0  0  0  0  0
   -1.5827   -0.8364   -0.0000 C   0  0  0  0  0  0  0  0  0  0  0  0
    0.6386   -2.1637   -0.0000 O   0  0  0  0  0  0  0  0  0  0  0  0
   -1.0827   -1.7024   -0.0000 C   0  0  0  0  0  0  0  0  0  0  0  0
    4.6962    4.0388   -0.0000 C   0  0  0  0  0  0  0  0  0  0  0  0
    6.9562    2.7788   -0.0000 O   0  0  0  0  0  0  0  0  0  0  0  0
    5.6962    4.0388   -0.0000 N   0  0  0  0  0  0  0  0  0  0  0  0
   -2.5827   -0.8364   -0.0000 C   0  0  0  0  0  0  0  0  0  0  0  0
   -1.5827   -2.5685   -0.0000 C   0  0  0  0  0  0  0  0  0  0  0  0
    4.1084    4.8479   -0.0000 S   0  0  0  0  0  0  0  0  0  0  0  0
   -3.0827   -1.7024   -0.0000 C   0  0  0  0  0  0  0  0  0  0  0  0
   -2.5827   -2.5685   -0.0000 C   0  0  0  0  0  0  0  0  0  0  0  0
  1  2  1  0  0  0  0
  2  3  2  0  0  0  0
  2  4  1  0  0  0  0
  3  5  1  0  0  0  0
  3  6  1  0  0  0  0
  4  7  2  0  0  0  0
  5  8  1  0  0  0  0
  6  9  2  0  0  0  0
  7 10  1  0  0  0  0
  8 11  1  0  0  0  0
 10 12  2  0  0  0  0
 11 13  1  0  0  0  0
 11 14  1  0  0  0  0
 12 15  1  0  0  0  0
 12 16  1  0  0  0  0
 13 17  2  0  0  0  0
 13 18  1  0  0  0  0
 14 19  2  0  0  0  0
 14 20  1  0  0  0  0
 15 21  1  0  0  0  0
 16 22  2  0  0  0  0
 16 23  1  0  0  0  0
 18 24  2  0  0  0  0
 20 25  2  0  0  0  0
 21 26  2  0  0  0  0
 24 27  1  0  0  0  0
 25 28  1  0  0  0  0
  7  9  1  0  0  0  0
 18 20  1  0  0  0  0
 21 23  1  0  0  0  0
 27 28  2  0  0  0  0
M  END
>  <S/N>
368

>  <Compound ID>
C_385

>  <PubChem CID>
145988648

>  <Isomeric SMILES>
C1=CC=C2C(=C1)C(=O)N(C2=O)COC3=C(C=C(C=C3)/C=C\4/C(=O)NC(=S)S4)Cl

>  <IC50 (�M)>
5.44

>  <pIC50>
5.26

$$$$
C_386
Actelion Java MolfileCreator 1.0

 27 30  0  0  0  0  0  0  0  0999 V2000
    7.5516   -1.1160   -0.0000 S   0  0  0  0  0  0  0  0  0  0  0  0
    7.1449   -0.2024   -0.0000 C   0  0  0  0  0  0  0  0  0  0  0  0
    6.1667    0.0055   -0.0000 S   0  0  0  0  0  0  0  0  0  0  0  0
    7.6449    0.6636   -0.0000 N   0  0  0  0  0  0  0  0  0  0  0  0
    6.0622    1.0000   -0.0000 C   0  0  0  0  0  0  0  0  0  0  0  0
    6.9757    1.4067   -0.0000 C   0  0  0  0  0  0  0  0  0  0  0  0
    5.1962    1.5000   -0.0000 C   0  0  0  0  0  0  0  0  0  0  0  0
    7.1836    2.3849   -0.0000 O   0  0  0  0  0  0  0  0  0  0  0  0
    4.3301    1.0000   -0.0000 C   0  0  0  0  0  0  0  0  0  0  0  0
    3.4641    1.5000   -0.0000 C   0  0  0  0  0  0  0  0  0  0  0  0
    4.3301    0.0000   -0.0000 C   0  0  0  0  0  0  0  0  0  0  0  0
    2.5981    1.0000   -0.0000 C   0  0  0  0  0  0  0  0  0  0  0  0
    3.4641   -0.5000   -0.0000 C   0  0  0  0  0  0  0  0  0  0  0  0
    2.5981   -0.0000   -0.0000 C   0  0  0  0  0  0  0  0  0  0  0  0
    1.7321   -0.5000   -0.0000 O   0  0  0  0  0  0  0  0  0  0  0  0
    0.8660   -0.0000   -0.0000 C   0  0  0  0  0  0  0  0  0  0  0  0
    0.0000   -0.5000   -0.0000 N   0  0  0  0  0  0  0  0  0  0  0  0
   -0.9135   -0.0933   -0.0000 C   0  0  0  0  0  0  0  0  0  0  0  0
   -0.1045   -1.4945   -0.0000 C   0  0  0  0  0  0  0  0  0  0  0  0
   -1.1215    0.8849   -0.0000 O   0  0  0  0  0  0  0  0  0  0  0  0
   -1.5827   -0.8364   -0.0000 C   0  0  0  0  0  0  0  0  0  0  0  0
    0.6386   -2.1637   -0.0000 O   0  0  0  0  0  0  0  0  0  0  0  0
   -1.0827   -1.7024   -0.0000 C   0  0  0  0  0  0  0  0  0  0  0  0
   -2.5827   -0.8364   -0.0000 C   0  0  0  0  0  0  0  0  0  0  0  0
   -1.5827   -2.5685   -0.0000 C   0  0  0  0  0  0  0  0  0  0  0  0
   -3.0827   -1.7024   -0.0000 C   0  0  0  0  0  0  0  0  0  0  0  0
   -2.5827   -2.5685   -0.0000 C   0  0  0  0  0  0  0  0  0  0  0  0
  1  2  2  0  0  0  0
  2  3  1  0  0  0  0
  2  4  1  0  0  0  0
  3  5  1  0  0  0  0
  4  6  1  0  0  0  0
  5  7  2  0  0  0  0
  6  8  2  0  0  0  0
  7  9  1  0  0  0  0
  9 10  2  0  0  0  0
  9 11  1  0  0  0  0
 10 12  1  0  0  0  0
 11 13  2  0  0  0  0
 12 14  2  0  0  0  0
 14 15  1  0  0  0  0
 15 16  1  0  0  0  0
 16 17  1  0  0  0  0
 17 18  1  0  0  0  0
 17 19  1  0  0  0  0
 18 20  2  0  0  0  0
 18 21  1  0  0  0  0
 19 22  2  0  0  0  0
 19 23  1  0  0  0  0
 21 24  2  0  0  0  0
 23 25  2  0  0  0  0
 24 26  1  0  0  0  0
 25 27  1  0  0  0  0
  5  6  1  0  0  0  0
 13 14  1  0  0  0  0
 21 23  1  0  0  0  0
 26 27  2  0  0  0  0
M  END
>  <S/N>
369

>  <Compound ID>
C_386

>  <PubChem CID>
145989626

>  <Isomeric SMILES>
C1=CC=C2C(=C1)C(=O)N(C2=O)COC3=CC=C(C=C3)/C=C\4/C(=O)NC(=S)S4

>  <IC50 (�M)>
7.91

>  <pIC50>
5.1

$$$$
C_387
Actelion Java MolfileCreator 1.0

 27 30  0  0  0  0  0  0  0  0999 V2000
    6.1667    0.0055   -0.0000 S   0  0  0  0  0  0  0  0  0  0  0  0
    7.1449   -0.2024   -0.0000 C   0  0  0  0  0  0  0  0  0  0  0  0
    6.0622    1.0000   -0.0000 C   0  0  0  0  0  0  0  0  0  0  0  0
    7.5516   -1.1160   -0.0000 O   0  0  0  0  0  0  0  0  0  0  0  0
    7.6449    0.6636   -0.0000 N   0  0  0  0  0  0  0  0  0  0  0  0
    6.9757    1.4067   -0.0000 C   0  0  0  0  0  0  0  0  0  0  0  0
    5.1962    1.5000   -0.0000 C   0  0  0  0  0  0  0  0  0  0  0  0
    7.1836    2.3849   -0.0000 O   0  0  0  0  0  0  0  0  0  0  0  0
    4.3301    1.0000   -0.0000 C   0  0  0  0  0  0  0  0  0  0  0  0
    3.4641    1.5000   -0.0000 C   0  0  0  0  0  0  0  0  0  0  0  0
    4.3301    0.0000   -0.0000 C   0  0  0  0  0  0  0  0  0  0  0  0
    2.5981    1.0000   -0.0000 C   0  0  0  0  0  0  0  0  0  0  0  0
    3.4641   -0.5000   -0.0000 C   0  0  0  0  0  0  0  0  0  0  0  0
    2.5981   -0.0000   -0.0000 C   0  0  0  0  0  0  0  0  0  0  0  0
    1.7321   -0.5000   -0.0000 O   0  0  0  0  0  0  0  0  0  0  0  0
    0.8660   -0.0000   -0.0000 C   0  0  0  0  0  0  0  0  0  0  0  0
    0.0000   -0.5000   -0.0000 N   0  0  0  0  0  0  0  0  0  0  0  0
   -0.9135   -0.0933   -0.0000 C   0  0  0  0  0  0  0  0  0  0  0  0
   -0.1045   -1.4945   -0.0000 C   0  0  0  0  0  0  0  0  0  0  0  0
   -1.1215    0.8849   -0.0000 O   0  0  0  0  0  0  0  0  0  0  0  0
   -1.5827   -0.8364   -0.0000 C   0  0  0  0  0  0  0  0  0  0  0  0
    0.6386   -2.1637   -0.0000 O   0  0  0  0  0  0  0  0  0  0  0  0
   -1.0827   -1.7024   -0.0000 C   0  0  0  0  0  0  0  0  0  0  0  0
   -2.5827   -0.8364   -0.0000 C   0  0  0  0  0  0  0  0  0  0  0  0
   -1.5827   -2.5685   -0.0000 C   0  0  0  0  0  0  0  0  0  0  0  0
   -3.0827   -1.7024   -0.0000 C   0  0  0  0  0  0  0  0  0  0  0  0
   -2.5827   -2.5685   -0.0000 C   0  0  0  0  0  0  0  0  0  0  0  0
  1  2  1  0  0  0  0
  1  3  1  0  0  0  0
  2  4  2  0  0  0  0
  2  5  1  0  0  0  0
  3  6  1  0  0  0  0
  3  7  2  0  0  0  0
  6  8  2  0  0  0  0
  7  9  1  0  0  0  0
  9 10  2  0  0  0  0
  9 11  1  0  0  0  0
 10 12  1  0  0  0  0
 11 13  2  0  0  0  0
 12 14  2  0  0  0  0
 14 15  1  0  0  0  0
 15 16  1  0  0  0  0
 16 17  1  0  0  0  0
 17 18  1  0  0  0  0
 17 19  1  0  0  0  0
 18 20  2  0  0  0  0
 18 21  1  0  0  0  0
 19 22  2  0  0  0  0
 19 23  1  0  0  0  0
 21 24  2  0  0  0  0
 23 25  2  0  0  0  0
 24 26  1  0  0  0  0
 25 27  1  0  0  0  0
  5  6  1  0  0  0  0
 13 14  1  0  0  0  0
 21 23  1  0  0  0  0
 26 27  2  0  0  0  0
M  END
>  <S/N>
370

>  <Compound ID>
C_387

>  <PubChem CID>
145990339

>  <Isomeric SMILES>
C1=CC=C2C(=C1)C(=O)N(C2=O)COC3=CC=C(C=C3)/C=C\4/C(=O)NC(=O)S4

>  <IC50 (�M)>
25.6

>  <pIC50>
4.59

$$$$
C_388
Actelion Java MolfileCreator 1.0

 30 33  0  0  0  0  0  0  0  0999 V2000
    6.1667    0.0055   -0.0000 S   0  0  0  0  0  0  0  0  0  0  0  0
    7.1449   -0.2024   -0.0000 C   0  0  0  0  0  0  0  0  0  0  0  0
    6.0622    1.0000   -0.0000 C   0  0  0  0  0  0  0  0  0  0  0  0
    7.5516   -1.1160   -0.0000 O   0  0  0  0  0  0  0  0  0  0  0  0
    7.6449    0.6636   -0.0000 N   0  0  0  0  0  0  0  0  0  0  0  0
    6.9757    1.4067   -0.0000 C   0  0  0  0  0  0  0  0  0  0  0  0
    5.1962    1.5000   -0.0000 C   0  0  0  0  0  0  0  0  0  0  0  0
    7.1836    2.3849   -0.0000 O   0  0  0  0  0  0  0  0  0  0  0  0
    4.3301    1.0000   -0.0000 C   0  0  0  0  0  0  0  0  0  0  0  0
    3.4641    1.5000   -0.0000 C   0  0  0  0  0  0  0  0  0  0  0  0
    4.3301    0.0000   -0.0000 C   0  0  0  0  0  0  0  0  0  0  0  0
    2.5981    1.0000   -0.0000 C   0  0  0  0  0  0  0  0  0  0  0  0
    3.4641   -0.5000   -0.0000 C   0  0  0  0  0  0  0  0  0  0  0  0
    1.7321    1.5000   -0.0000 O   0  0  0  0  0  0  0  0  0  0  0  0
    2.5981   -0.0000   -0.0000 C   0  0  0  0  0  0  0  0  0  0  0  0
    1.7321    2.5000   -0.0000 C   0  0  0  0  0  0  0  0  0  0  0  0
    1.7321   -0.5000   -0.0000 O   0  0  0  0  0  0  0  0  0  0  0  0
    0.8660    3.0000   -0.0000 C   0  0  0  0  0  0  0  0  0  0  0  0
    0.8660   -0.0000   -0.0000 C   0  0  0  0  0  0  0  0  0  0  0  0
    0.0000   -0.5000   -0.0000 N   0  0  0  0  0  0  0  0  0  0  0  0
   -0.9135   -0.0933   -0.0000 C   0  0  0  0  0  0  0  0  0  0  0  0
   -0.1045   -1.4945   -0.0000 C   0  0  0  0  0  0  0  0  0  0  0  0
   -1.1215    0.8849   -0.0000 O   0  0  0  0  0  0  0  0  0  0  0  0
   -1.5827   -0.8364   -0.0000 C   0  0  0  0  0  0  0  0  0  0  0  0
    0.6386   -2.1637   -0.0000 O   0  0  0  0  0  0  0  0  0  0  0  0
   -1.0827   -1.7024   -0.0000 C   0  0  0  0  0  0  0  0  0  0  0  0
   -2.5827   -0.8364   -0.0000 C   0  0  0  0  0  0  0  0  0  0  0  0
   -1.5827   -2.5685   -0.0000 C   0  0  0  0  0  0  0  0  0  0  0  0
   -3.0827   -1.7024   -0.0000 C   0  0  0  0  0  0  0  0  0  0  0  0
   -2.5827   -2.5685   -0.0000 C   0  0  0  0  0  0  0  0  0  0  0  0
  1  2  1  0  0  0  0
  1  3  1  0  0  0  0
  2  4  2  0  0  0  0
  2  5  1  0  0  0  0
  3  6  1  0  0  0  0
  3  7  2  0  0  0  0
  6  8  2  0  0  0  0
  7  9  1  0  0  0  0
  9 10  2  0  0  0  0
  9 11  1  0  0  0  0
 10 12  1  0  0  0  0
 11 13  2  0  0  0  0
 12 14  1  0  0  0  0
 12 15  2  0  0  0  0
 14 16  1  0  0  0  0
 15 17  1  0  0  0  0
 16 18  1  0  0  0  0
 17 19  1  0  0  0  0
 19 20  1  0  0  0  0
 20 21  1  0  0  0  0
 20 22  1  0  0  0  0
 21 23  2  0  0  0  0
 21 24  1  0  0  0  0
 22 25  2  0  0  0  0
 22 26  1  0  0  0  0
 24 27  2  0  0  0  0
 26 28  2  0  0  0  0
 27 29  1  0  0  0  0
 28 30  1  0  0  0  0
  5  6  1  0  0  0  0
 13 15  1  0  0  0  0
 24 26  1  0  0  0  0
 29 30  2  0  0  0  0
M  END
>  <S/N>
371

>  <Compound ID>
C_388

>  <PubChem CID>
145991381

>  <Isomeric SMILES>
CCOC1=C(C=CC(=C1)/C=C\2/C(=O)NC(=O)S2)OCN3C(=O)C4=CC=CC=C4C3=O

>  <IC50 (�M)>
29.26

>  <pIC50>
4.53

$$$$
C_389
Actelion Java MolfileCreator 1.0

 28 31  0  0  0  0  0  0  0  0999 V2000
    7.7942    2.2500   -0.0000 Cl  0  0  0  0  0  0  0  0  0  0  0  0
    6.4952    1.5000   -0.0000 C   0  0  0  0  0  0  0  0  0  0  0  0
    5.1962    2.2500   -0.0000 C   0  0  0  0  0  0  0  0  0  0  0  0
    6.4952    0.0000   -0.0000 C   0  0  0  0  0  0  0  0  0  0  0  0
    3.8971    1.5000   -0.0000 C   0  0  0  0  0  0  0  0  0  0  0  0
    5.1962   -0.7500   -0.0000 C   0  0  0  0  0  0  0  0  0  0  0  0
    3.8971   -0.0000   -0.0000 C   0  0  0  0  0  0  0  0  0  0  0  0
    2.5981    2.2500   -0.0000 C   0  0  0  0  0  0  0  0  0  0  0  0
    2.5981   -0.7500   -0.0000 O   0  0  0  0  0  0  0  0  0  0  0  0
    2.5981    3.7500   -0.0000 C   0  0  0  0  0  0  0  0  0  0  0  0
    2.5981   -2.2500   -0.0000 C   0  0  0  0  0  0  0  0  0  0  0  0
    3.8116    4.6317   -0.0000 S   0  0  0  0  0  0  0  0  0  0  0  0
    1.3846    4.6317   -0.0000 C   0  0  0  0  0  0  0  0  0  0  0  0
    1.2990   -3.0000   -0.0000 N   0  0  0  0  0  0  0  0  0  0  0  0
    3.3481    6.0583   -0.0000 C   0  0  0  0  0  0  0  0  0  0  0  0
   -0.0420    4.1682   -0.0000 O   0  0  0  0  0  0  0  0  0  0  0  0
    1.8481    6.0583   -0.0000 N   0  0  0  0  0  0  0  0  0  0  0  0
    1.1422   -4.4918   -0.0000 C   0  0  0  0  0  0  0  0  0  0  0  0
   -0.0713   -2.3899   -0.0000 C   0  0  0  0  0  0  0  0  0  0  0  0
    4.2298    7.2718   -0.0000 S   0  0  0  0  0  0  0  0  0  0  0  0
    2.2570   -5.4955   -0.0000 O   0  0  0  0  0  0  0  0  0  0  0  0
   -0.3250   -4.8037   -0.0000 C   0  0  0  0  0  0  0  0  0  0  0  0
   -0.3831   -0.9227   -0.0000 O   0  0  0  0  0  0  0  0  0  0  0  0
   -1.0750   -3.5046   -0.0000 C   0  0  0  0  0  0  0  0  0  0  0  0
   -1.0750   -6.1027   -0.0000 C   0  0  0  0  0  0  0  0  0  0  0  0
   -2.5750   -3.5046   -0.0000 C   0  0  0  0  0  0  0  0  0  0  0  0
   -2.5750   -6.1027   -0.0000 C   0  0  0  0  0  0  0  0  0  0  0  0
   -3.3250   -4.8037   -0.0000 C   0  0  0  0  0  0  0  0  0  0  0  0
  1  2  1  0  0  0  0
  2  3  2  0  0  0  0
  2  4  1  0  0  0  0
  3  5  1  0  0  0  0
  4  6  2  0  0  0  0
  5  7  2  0  0  0  0
  5  8  1  0  0  0  0
  7  9  1  0  0  0  0
  8 10  2  0  0  0  0
  9 11  1  0  0  0  0
 10 12  1  0  0  0  0
 10 13  1  0  0  0  0
 11 14  1  0  0  0  0
 12 15  1  0  0  0  0
 13 16  2  0  0  0  0
 13 17  1  0  0  0  0
 14 18  1  0  0  0  0
 14 19  1  0  0  0  0
 15 20  2  0  0  0  0
 18 21  2  0  0  0  0
 18 22  1  0  0  0  0
 19 23  2  0  0  0  0
 19 24  1  0  0  0  0
 22 25  2  0  0  0  0
 24 26  2  0  0  0  0
 25 27  1  0  0  0  0
 26 28  1  0  0  0  0
  6  7  1  0  0  0  0
 15 17  1  0  0  0  0
 22 24  1  0  0  0  0
 27 28  2  0  0  0  0
M  END
>  <S/N>
372

>  <Compound ID>
C_389

>  <PubChem CID>
145993316

>  <Isomeric SMILES>
C1=CC=C2C(=C1)C(=O)N(C2=O)COC3=C(C=C(C=C3)Cl)/C=C\4/C(=O)NC(=S)S4

>  <IC50 (�M)>
34.82

>  <pIC50>
4.46

$$$$
C_390
Actelion Java MolfileCreator 1.0

 30 33  0  0  0  0  0  0  0  0999 V2000
    7.5516   -1.1160   -0.0000 S   0  0  0  0  0  0  0  0  0  0  0  0
    7.1449   -0.2024   -0.0000 C   0  0  0  0  0  0  0  0  0  0  0  0
    6.1667    0.0055   -0.0000 S   0  0  0  0  0  0  0  0  0  0  0  0
    7.6449    0.6636   -0.0000 N   0  0  0  0  0  0  0  0  0  0  0  0
    6.0622    1.0000   -0.0000 C   0  0  0  0  0  0  0  0  0  0  0  0
    6.9757    1.4067   -0.0000 C   0  0  0  0  0  0  0  0  0  0  0  0
    5.1962    1.5000   -0.0000 C   0  0  0  0  0  0  0  0  0  0  0  0
    7.1836    2.3849   -0.0000 O   0  0  0  0  0  0  0  0  0  0  0  0
    4.3301    1.0000   -0.0000 C   0  0  0  0  0  0  0  0  0  0  0  0
    3.4641    1.5000   -0.0000 C   0  0  0  0  0  0  0  0  0  0  0  0
    4.3301    0.0000   -0.0000 C   0  0  0  0  0  0  0  0  0  0  0  0
    2.5981    1.0000   -0.0000 C   0  0  0  0  0  0  0  0  0  0  0  0
    3.4641   -0.5000   -0.0000 C   0  0  0  0  0  0  0  0  0  0  0  0
    1.7321    1.5000   -0.0000 N   0  0  0  0  0  0  0  0  0  0  0  0
    2.5981   -0.0000   -0.0000 C   0  0  0  0  0  0  0  0  0  0  0  0
    1.7321    2.5000   -0.0000 O   0  0  0  0  0  0  0  0  0  0  0  0
    0.8660    1.0000   -0.0000 O   0  0  0  0  0  0  0  0  0  0  0  0
    1.7321   -0.5000   -0.0000 O   0  0  0  0  0  0  0  0  0  0  0  0
    0.8660   -0.0000   -0.0000 C   0  0  0  0  0  0  0  0  0  0  0  0
    0.0000   -0.5000   -0.0000 N   0  0  0  0  0  0  0  0  0  0  0  0
   -0.9135   -0.0933   -0.0000 C   0  0  0  0  0  0  0  0  0  0  0  0
   -0.1045   -1.4945   -0.0000 C   0  0  0  0  0  0  0  0  0  0  0  0
   -1.1215    0.8849   -0.0000 O   0  0  0  0  0  0  0  0  0  0  0  0
   -1.5827   -0.8364   -0.0000 C   0  0  0  0  0  0  0  0  0  0  0  0
    0.6386   -2.1637   -0.0000 O   0  0  0  0  0  0  0  0  0  0  0  0
   -1.0827   -1.7024   -0.0000 C   0  0  0  0  0  0  0  0  0  0  0  0
   -2.5827   -0.8364   -0.0000 C   0  0  0  0  0  0  0  0  0  0  0  0
   -1.5827   -2.5685   -0.0000 C   0  0  0  0  0  0  0  0  0  0  0  0
   -3.0827   -1.7024   -0.0000 C   0  0  0  0  0  0  0  0  0  0  0  0
   -2.5827   -2.5685   -0.0000 C   0  0  0  0  0  0  0  0  0  0  0  0
  1  2  2  0  0  0  0
  2  3  1  0  0  0  0
  2  4  1  0  0  0  0
  3  5  1  0  0  0  0
  4  6  1  0  0  0  0
  5  7  2  0  0  0  0
  6  8  2  0  0  0  0
  7  9  1  0  0  0  0
  9 10  2  0  0  0  0
  9 11  1  0  0  0  0
 10 12  1  0  0  0  0
 11 13  2  0  0  0  0
 12 14  1  0  0  0  0
 12 15  2  0  0  0  0
 14 16  2  0  0  0  0
 14 17  1  0  0  0  0
 15 18  1  0  0  0  0
 18 19  1  0  0  0  0
 19 20  1  0  0  0  0
 20 21  1  0  0  0  0
 20 22  1  0  0  0  0
 21 23  2  0  0  0  0
 21 24  1  0  0  0  0
 22 25  2  0  0  0  0
 22 26  1  0  0  0  0
 24 27  2  0  0  0  0
 26 28  2  0  0  0  0
 27 29  1  0  0  0  0
 28 30  1  0  0  0  0
  5  6  1  0  0  0  0
 13 15  1  0  0  0  0
 24 26  1  0  0  0  0
 29 30  2  0  0  0  0
M  CHG  2  14   1  17  -1
M  END
>  <S/N>
373

>  <Compound ID>
C_390

>  <PubChem CID>
145993688

>  <Isomeric SMILES>
C1=CC=C2C(=C1)C(=O)N(C2=O)COC3=C(C=C(C=C3)/C=C\4/C(=O)NC(=S)S4)[N+](=O)[O-]

>  <IC50 (�M)>
6.59

>  <pIC50>
5.18

$$$$
C_391
Actelion Java MolfileCreator 1.0

 22 23  0  0  1  0  0  0  0  0999 V2000
    6.0622   -2.0000   -0.0000 Br  0  0  0  0  0  0  0  0  0  0  0  0
    5.1962   -1.5000   -0.0000 C   0  0  0  0  0  0  0  0  0  0  0  0
    5.1962   -0.5000   -0.0000 C   0  0  0  0  0  0  0  0  0  0  0  0
    4.3301   -2.0000   -0.0000 C   0  0  0  0  0  0  0  0  0  0  0  0
    4.3301    0.0000   -0.0000 C   0  0  0  0  0  0  0  0  0  0  0  0
    3.4641   -1.5000   -0.0000 C   0  0  0  0  0  0  0  0  0  0  0  0
    4.3301    1.0000   -0.0000 O   0  0  0  0  0  0  0  0  0  0  0  0
    3.4641   -0.5000   -0.0000 C   0  0  0  0  0  0  0  0  0  0  0  0
    3.4641    1.5000   -0.0000 C   0  0  0  0  0  0  0  0  0  0  0  0
    2.5981   -0.0000   -0.0000 O   0  0  0  0  0  0  0  0  0  0  0  0
    1.7321   -0.5000   -0.0000 C   0  0  0  0  0  0  0  0  0  0  0  0
    0.8660   -0.0000   -0.0000 C   0  0  0  0  0  0  0  0  0  0  0  0
    1.7321   -1.5000   -0.0000 C   0  0  0  0  0  0  0  0  0  0  0  0
    0.0000   -0.5000   -0.0000 N   0  0  0  0  0  0  0  0  0  0  0  0
   -0.9135   -0.0933   -0.0000 N   0  0  0  0  0  0  0  0  0  0  0  0
   -0.1045   -1.4945   -0.0000 C   0  0  0  0  0  0  0  0  0  0  0  0
   -1.5827   -0.8364   -0.0000 N   0  0  0  0  0  0  0  0  0  0  0  0
   -1.0827   -1.7024   -0.0000 C   0  0  0  0  0  0  0  0  0  0  0  0
   -1.4894   -2.6160   -0.0000 C   0  0  0  0  0  0  0  0  0  0  0  0
   -0.9016   -3.4250   -0.0000 O   0  0  0  0  0  0  0  0  0  0  0  0
   -2.4839   -2.7205   -0.0000 O   0  0  0  0  0  0  0  0  0  0  0  0
   -2.8907   -3.6341   -0.0000 C   0  0  0  0  0  0  0  0  0  0  0  0
  1  2  1  0  0  0  0
  2  3  2  0  0  0  0
  2  4  1  0  0  0  0
  3  5  1  0  0  0  0
  4  6  2  0  0  0  0
  5  7  1  0  0  0  0
  5  8  2  0  0  0  0
  7  9  1  0  0  0  0
  8 10  1  0  0  0  0
 10 11  1  0  0  0  0
 11 12  1  0  0  0  0
 11 13  1  6  0  0  0
 12 14  1  0  0  0  0
 14 15  1  0  0  0  0
 14 16  1  0  0  0  0
 15 17  2  0  0  0  0
 16 18  2  0  0  0  0
 18 19  1  0  0  0  0
 19 20  2  0  0  0  0
 19 21  1  0  0  0  0
 21 22  1  0  0  0  0
  6  8  1  0  0  0  0
 17 18  1  0  0  0  0
M  END
>  <S/N>
374

>  <Compound ID>
C_391

>  <PubChem CID>
155510402

>  <Isomeric SMILES>
C[C@H](CN1C=C(N=N1)C(=O)OC)OC2=C(C=C(C=C2)Br)OC

>  <IC50 (�M)>
14

>  <pIC50>
4.85

$$$$
C_392
Actelion Java MolfileCreator 1.0

 37 41  0  0  0  0  0  0  0  0999 V2000
    9.5263    3.0000   -0.0000 Br  0  0  0  0  0  0  0  0  0  0  0  0
    8.6603    2.5000   -0.0000 C   0  0  0  0  0  0  0  0  0  0  0  0
    7.7942    3.0000   -0.0000 C   0  0  0  0  0  0  0  0  0  0  0  0
    8.6603    1.5000   -0.0000 C   0  0  0  0  0  0  0  0  0  0  0  0
    6.9282    2.5000   -0.0000 C   0  0  0  0  0  0  0  0  0  0  0  0
    7.7942    1.0000   -0.0000 C   0  0  0  0  0  0  0  0  0  0  0  0
    6.9282    1.5000   -0.0000 C   0  0  0  0  0  0  0  0  0  0  0  0
    6.0622    1.0000   -0.0000 C   0  0  0  0  0  0  0  0  0  0  0  0
    5.1962    1.5000   -0.0000 N   0  0  0  0  0  0  0  0  0  0  0  0
    6.0622   -0.0000   -0.0000 C   0  0  0  0  0  0  0  0  0  0  0  0
    4.3301    1.0000   -0.0000 N   0  0  0  0  0  0  0  0  0  0  0  0
    5.1962   -0.5000   -0.0000 N   0  0  0  0  0  0  0  0  0  0  0  0
    6.9282   -0.5000   -0.0000 C   0  0  0  0  0  0  0  0  0  0  0  0
    4.3301   -0.0000   -0.0000 C   0  0  0  0  0  0  0  0  0  0  0  0
    6.9282   -1.5000   -0.0000 C   0  0  0  0  0  0  0  0  0  0  0  0
    7.7942   -0.0000   -0.0000 C   0  0  0  0  0  0  0  0  0  0  0  0
    3.4641   -0.5000   -0.0000 S   0  0  0  0  0  0  0  0  0  0  0  0
    7.7942   -2.0000   -0.0000 C   0  0  0  0  0  0  0  0  0  0  0  0
    8.6603   -0.5000   -0.0000 C   0  0  0  0  0  0  0  0  0  0  0  0
    2.5981   -0.0000   -0.0000 C   0  0  0  0  0  0  0  0  0  0  0  0
    8.6603   -1.5000   -0.0000 C   0  0  0  0  0  0  0  0  0  0  0  0
    1.7321   -0.5000   -0.0000 C   0  0  0  0  0  0  0  0  0  0  0  0
    9.5263   -2.0000   -0.0000 Br  0  0  0  0  0  0  0  0  0  0  0  0
    1.7321   -1.5000   -0.0000 O   0  0  0  0  0  0  0  0  0  0  0  0
    0.8660   -0.0000   -0.0000 N   0  0  0  0  0  0  0  0  0  0  0  0
    0.0000   -0.5000   -0.0000 C   0  0  0  0  0  0  0  0  0  0  0  0
   -0.9135   -0.0933   -0.0000 S   0  0  0  0  0  0  0  0  0  0  0  0
   -0.1045   -1.4945   -0.0000 N   0  0  0  0  0  0  0  0  0  0  0  0
   -1.5827   -0.8364   -0.0000 C   0  0  0  0  0  0  0  0  0  0  0  0
   -1.0827   -1.7024   -0.0000 C   0  0  0  0  0  0  0  0  0  0  0  0
   -1.4894   -2.6160   -0.0000 C   0  0  0  0  0  0  0  0  0  0  0  0
   -2.4839   -2.7205   -0.0000 C   0  0  0  0  0  0  0  0  0  0  0  0
   -0.9016   -3.4250   -0.0000 C   0  0  0  0  0  0  0  0  0  0  0  0
   -2.8907   -3.6341   -0.0000 C   0  0  0  0  0  0  0  0  0  0  0  0
   -1.3084   -4.3385   -0.0000 C   0  0  0  0  0  0  0  0  0  0  0  0
   -2.3029   -4.4431   -0.0000 C   0  0  0  0  0  0  0  0  0  0  0  0
   -2.7096   -5.3566   -0.0000 C   0  0  0  0  0  0  0  0  0  0  0  0
  1  2  1  0  0  0  0
  2  3  2  0  0  0  0
  2  4  1  0  0  0  0
  3  5  1  0  0  0  0
  4  6  2  0  0  0  0
  5  7  2  0  0  0  0
  7  8  1  0  0  0  0
  8  9  2  0  0  0  0
  8 10  1  0  0  0  0
  9 11  1  0  0  0  0
 10 12  2  0  0  0  0
 10 13  1  0  0  0  0
 11 14  2  0  0  0  0
 13 15  2  0  0  0  0
 13 16  1  0  0  0  0
 14 17  1  0  0  0  0
 15 18  1  0  0  0  0
 16 19  2  0  0  0  0
 17 20  1  0  0  0  0
 18 21  2  0  0  0  0
 20 22  1  0  0  0  0
 21 23  1  0  0  0  0
 22 24  2  0  0  0  0
 22 25  1  0  0  0  0
 25 26  1  0  0  0  0
 26 27  1  0  0  0  0
 26 28  2  0  0  0  0
 27 29  1  0  0  0  0
 28 30  1  0  0  0  0
 30 31  1  0  0  0  0
 31 32  2  0  0  0  0
 31 33  1  0  0  0  0
 32 34  1  0  0  0  0
 33 35  2  0  0  0  0
 34 36  2  0  0  0  0
 36 37  1  0  0  0  0
  6  7  1  0  0  0  0
 12 14  1  0  0  0  0
 19 21  1  0  0  0  0
 29 30  2  0  0  0  0
 35 36  1  0  0  0  0
M  END
>  <S/N>
375

>  <Compound ID>
C_392

>  <PubChem CID>
155510527

>  <Isomeric SMILES>
CC1=CC=C(C=C1)C2=CSC(=N2)NC(=O)CSC3=NC(=C(N=N3)C4=CC=C(C=C4)Br)C5=CC=C(C=C5)Br

>  <IC50 (�M)>
2.8

>  <pIC50>
5.55

$$$$
C_393
Actelion Java MolfileCreator 1.0

 31 35  0  0  0  0  0  0  0  0999 V2000
    5.5800    0.5305   -0.0000 Cl  0  0  0  0  0  0  0  0  0  0  0  0
    4.6019    0.3226   -0.0000 C   0  0  0  0  0  0  0  0  0  0  0  0
    4.2929   -0.6285   -0.0000 C   0  0  0  0  0  0  0  0  0  0  0  0
    3.9328    1.0657   -0.0000 C   0  0  0  0  0  0  0  0  0  0  0  0
    3.3147   -0.8364   -0.0000 C   0  0  0  0  0  0  0  0  0  0  0  0
    2.9546    0.8578   -0.0000 C   0  0  0  0  0  0  0  0  0  0  0  0
    2.8147   -1.7024   -0.0000 N   0  0  0  0  0  0  0  0  0  0  0  0
    2.6456   -0.0933   -0.0000 C   0  0  0  0  0  0  0  0  0  0  0  0
    1.8366   -1.4945   -0.0000 C   0  0  0  0  0  0  0  0  0  0  0  0
    1.7321   -0.5000   -0.0000 C   0  0  0  0  0  0  0  0  0  0  0  0
    1.0934   -2.1637   -0.0000 O   0  0  0  0  0  0  0  0  0  0  0  0
    0.8660   -0.0000   -0.0000 C   0  0  0  0  0  0  0  0  0  0  0  0
    0.0000   -0.5000   -0.0000 C   0  0  0  0  0  0  0  0  0  0  0  0
   -0.8660    0.0000   -0.0000 C   0  0  0  0  0  0  0  0  0  0  0  0
   -0.0000   -1.5000   -0.0000 C   0  0  0  0  0  0  0  0  0  0  0  0
   -1.7321   -0.5000   -0.0000 C   0  0  0  0  0  0  0  0  0  0  0  0
   -0.8660   -2.0000   -0.0000 C   0  0  0  0  0  0  0  0  0  0  0  0
   -1.7321   -1.5000   -0.0000 C   0  0  0  0  0  0  0  0  0  0  0  0
   -2.5981   -2.0000   -0.0000 C   0  0  0  0  0  0  0  0  0  0  0  0
   -3.5116   -1.5933   -0.0000 O   0  0  0  0  0  0  0  0  0  0  0  0
   -2.7026   -2.9945   -0.0000 N   0  0  0  0  0  0  0  0  0  0  0  0
   -4.1808   -2.3364   -0.0000 C   0  0  0  0  0  0  0  0  0  0  0  0
   -3.6808   -3.2024   -0.0000 N   0  0  0  0  0  0  0  0  0  0  0  0
   -5.1753   -2.2319   -0.0000 C   0  0  0  0  0  0  0  0  0  0  0  0
   -5.5820   -1.3183   -0.0000 C   0  0  0  0  0  0  0  0  0  0  0  0
   -5.7631   -3.0409   -0.0000 C   0  0  0  0  0  0  0  0  0  0  0  0
   -6.5765   -1.2138   -0.0000 C   0  0  0  0  0  0  0  0  0  0  0  0
   -6.7576   -2.9364   -0.0000 C   0  0  0  0  0  0  0  0  0  0  0  0
   -6.9833   -0.3003   -0.0000 O   0  0  0  0  0  0  0  0  0  0  0  0
   -7.1643   -2.0228   -0.0000 C   0  0  0  0  0  0  0  0  0  0  0  0
   -7.3454   -3.7454   -0.0000 O   0  0  0  0  0  0  0  0  0  0  0  0
  1  2  1  0  0  0  0
  2  3  2  0  0  0  0
  2  4  1  0  0  0  0
  3  5  1  0  0  0  0
  4  6  2  0  0  0  0
  5  7  1  0  0  0  0
  5  8  2  0  0  0  0
  7  9  1  0  0  0  0
  8 10  1  0  0  0  0
  9 11  2  0  0  0  0
 10 12  2  0  0  0  0
 12 13  1  0  0  0  0
 13 14  2  0  0  0  0
 13 15  1  0  0  0  0
 14 16  1  0  0  0  0
 15 17  2  0  0  0  0
 16 18  2  0  0  0  0
 18 19  1  0  0  0  0
 19 20  1  0  0  0  0
 19 21  2  0  0  0  0
 20 22  1  0  0  0  0
 21 23  1  0  0  0  0
 22 24  1  0  0  0  0
 24 25  2  0  0  0  0
 24 26  1  0  0  0  0
 25 27  1  0  0  0  0
 26 28  2  0  0  0  0
 27 29  1  0  0  0  0
 27 30  2  0  0  0  0
 28 31  1  0  0  0  0
  6  8  1  0  0  0  0
  9 10  1  0  0  0  0
 17 18  1  0  0  0  0
 22 23  2  0  0  0  0
 28 30  1  0  0  0  0
M  END
>  <S/N>
376

>  <Compound ID>
C_393

>  <PubChem CID>
155510903

>  <Isomeric SMILES>
C1=CC(=CC=C1/C=C\2/C3=C(C=C(C=C3)Cl)NC2=O)C4=NN=C(O4)C5=CC(=CC(=C5)O)O

>  <IC50 (�M)>
1.2

>  <pIC50>
5.92

$$$$
C_394
Actelion Java MolfileCreator 1.0

 38 42  0  0  0  0  0  0  0  0999 V2000
    9.9708   -7.4973   -0.0000 Br  0  0  0  0  0  0  0  0  0  0  0  0
    8.9762   -7.3928   -0.0000 C   0  0  0  0  0  0  0  0  0  0  0  0
    8.5695   -6.4792   -0.0000 C   0  0  0  0  0  0  0  0  0  0  0  0
    8.3885   -8.2018   -0.0000 C   0  0  0  0  0  0  0  0  0  0  0  0
    7.5750   -6.3747   -0.0000 C   0  0  0  0  0  0  0  0  0  0  0  0
    7.3939   -8.0973   -0.0000 C   0  0  0  0  0  0  0  0  0  0  0  0
    7.1682   -5.4611   -0.0000 O   0  0  0  0  0  0  0  0  0  0  0  0
    6.9872   -7.1837   -0.0000 C   0  0  0  0  0  0  0  0  0  0  0  0
    6.1737   -5.3566   -0.0000 C   0  0  0  0  0  0  0  0  0  0  0  0
    5.9927   -7.0792   -0.0000 C   0  0  0  0  0  0  0  0  0  0  0  0
    5.5859   -6.1656   -0.0000 C   0  0  0  0  0  0  0  0  0  0  0  0
    5.7670   -4.4431   -0.0000 C   0  0  0  0  0  0  0  0  0  0  0  0
    5.4049   -7.8882   -0.0000 O   0  0  0  0  0  0  0  0  0  0  0  0
    4.5914   -6.0611   -0.0000 C   0  0  0  0  0  0  0  0  0  0  0  0
    4.7725   -4.3385   -0.0000 C   0  0  0  0  0  0  0  0  0  0  0  0
    4.0036   -6.8701   -0.0000 O   0  0  0  0  0  0  0  0  0  0  0  0
    4.1847   -5.1476   -0.0000 C   0  0  0  0  0  0  0  0  0  0  0  0
    4.3657   -3.4250   -0.0000 O   0  0  0  0  0  0  0  0  0  0  0  0
    4.9535   -2.6160   -0.0000 C   0  0  0  0  0  0  0  0  0  0  0  0
    4.5468   -1.7024   -0.0000 C   0  0  0  0  0  0  0  0  0  0  0  0
    5.0468   -0.8364   -0.0000 N   0  0  0  0  0  0  0  0  0  0  0  0
    3.5686   -1.4945   -0.0000 C   0  0  0  0  0  0  0  0  0  0  0  0
    4.3776   -0.0933   -0.0000 N   0  0  0  0  0  0  0  0  0  0  0  0
    3.4641   -0.5000   -0.0000 N   0  0  0  0  0  0  0  0  0  0  0  0
    2.5981   -0.0000   -0.0000 C   0  0  0  0  0  0  0  0  0  0  0  0
    1.7321   -0.5000   -0.0000 C   0  0  0  0  0  0  0  0  0  0  0  0
    1.7321   -1.5000   -0.0000 O   0  0  0  0  0  0  0  0  0  0  0  0
    0.8660   -0.0000   -0.0000 N   0  0  0  0  0  0  0  0  0  0  0  0
    0.0000   -0.5000   -0.0000 C   0  0  0  0  0  0  0  0  0  0  0  0
   -0.8660    0.0000   -0.0000 C   0  0  0  0  0  0  0  0  0  0  0  0
   -0.0000   -1.5000   -0.0000 C   0  0  0  0  0  0  0  0  0  0  0  0
   -0.8660    1.0000   -0.0000 O   0  0  0  0  0  0  0  0  0  0  0  0
   -1.7321   -0.5000   -0.0000 C   0  0  0  0  0  0  0  0  0  0  0  0
   -0.8660   -2.0000   -0.0000 C   0  0  0  0  0  0  0  0  0  0  0  0
   -1.7321    1.5000   -0.0000 C   0  0  0  0  0  0  0  0  0  0  0  0
   -1.7321   -1.5000   -0.0000 C   0  0  0  0  0  0  0  0  0  0  0  0
   -2.5981   -2.0000   -0.0000 O   0  0  0  0  0  0  0  0  0  0  0  0
   -2.5981   -3.0000   -0.0000 C   0  0  0  0  0  0  0  0  0  0  0  0
  1  2  1  0  0  0  0
  2  3  2  0  0  0  0
  2  4  1  0  0  0  0
  3  5  1  0  0  0  0
  4  6  2  0  0  0  0
  5  7  1  0  0  0  0
  5  8  2  0  0  0  0
  7  9  1  0  0  0  0
  8 10  1  0  0  0  0
  9 11  2  0  0  0  0
  9 12  1  0  0  0  0
 10 13  2  0  0  0  0
 11 14  1  0  0  0  0
 12 15  2  0  0  0  0
 14 16  1  0  0  0  0
 14 17  2  0  0  0  0
 15 18  1  0  0  0  0
 18 19  1  0  0  0  0
 19 20  1  0  0  0  0
 20 21  1  0  0  0  0
 20 22  2  0  0  0  0
 21 23  2  0  0  0  0
 22 24  1  0  0  0  0
 24 25  1  0  0  0  0
 25 26  1  0  0  0  0
 26 27  2  0  0  0  0
 26 28  1  0  0  0  0
 28 29  1  0  0  0  0
 29 30  2  0  0  0  0
 29 31  1  0  0  0  0
 30 32  1  0  0  0  0
 30 33  1  0  0  0  0
 31 34  2  0  0  0  0
 32 35  1  0  0  0  0
 33 36  2  0  0  0  0
 36 37  1  0  0  0  0
 37 38  1  0  0  0  0
  6  8  1  0  0  0  0
 10 11  1  0  0  0  0
 15 17  1  0  0  0  0
 23 24  1  0  0  0  0
 34 36  1  0  0  0  0
M  END
>  <S/N>
377

>  <Compound ID>
C_394

>  <PubChem CID>
155511020

>  <Isomeric SMILES>
COC1=CC(=C(C=C1)NC(=O)CN2C=C(N=N2)COC3=CC(=C4C(=C3)OC5=C(C4=O)C=CC(=C5)Br)O)OC

>  <IC50 (�M)>
2.78

>  <pIC50>
5.56

$$$$
C_395
Actelion Java MolfileCreator 1.0

 37 41  0  0  0  0  0  0  0  0999 V2000
    9.5263    3.0000   -0.0000 Br  0  0  0  0  0  0  0  0  0  0  0  0
    8.6603    2.5000   -0.0000 C   0  0  0  0  0  0  0  0  0  0  0  0
    7.7942    3.0000   -0.0000 C   0  0  0  0  0  0  0  0  0  0  0  0
    8.6603    1.5000   -0.0000 C   0  0  0  0  0  0  0  0  0  0  0  0
    6.9282    2.5000   -0.0000 C   0  0  0  0  0  0  0  0  0  0  0  0
    7.7942    1.0000   -0.0000 C   0  0  0  0  0  0  0  0  0  0  0  0
    6.9282    1.5000   -0.0000 C   0  0  0  0  0  0  0  0  0  0  0  0
    6.0622    1.0000   -0.0000 C   0  0  0  0  0  0  0  0  0  0  0  0
    5.1962    1.5000   -0.0000 N   0  0  0  0  0  0  0  0  0  0  0  0
    6.0622   -0.0000   -0.0000 C   0  0  0  0  0  0  0  0  0  0  0  0
    4.3301    1.0000   -0.0000 N   0  0  0  0  0  0  0  0  0  0  0  0
    5.1962   -0.5000   -0.0000 N   0  0  0  0  0  0  0  0  0  0  0  0
    6.9282   -0.5000   -0.0000 C   0  0  0  0  0  0  0  0  0  0  0  0
    4.3301   -0.0000   -0.0000 C   0  0  0  0  0  0  0  0  0  0  0  0
    6.9282   -1.5000   -0.0000 C   0  0  0  0  0  0  0  0  0  0  0  0
    7.7942   -0.0000   -0.0000 C   0  0  0  0  0  0  0  0  0  0  0  0
    3.4641   -0.5000   -0.0000 S   0  0  0  0  0  0  0  0  0  0  0  0
    7.7942   -2.0000   -0.0000 C   0  0  0  0  0  0  0  0  0  0  0  0
    8.6603   -0.5000   -0.0000 C   0  0  0  0  0  0  0  0  0  0  0  0
    2.5981   -0.0000   -0.0000 C   0  0  0  0  0  0  0  0  0  0  0  0
    8.6603   -1.5000   -0.0000 C   0  0  0  0  0  0  0  0  0  0  0  0
    1.7321   -0.5000   -0.0000 C   0  0  0  0  0  0  0  0  0  0  0  0
    9.5263   -2.0000   -0.0000 Br  0  0  0  0  0  0  0  0  0  0  0  0
    1.7321   -1.5000   -0.0000 O   0  0  0  0  0  0  0  0  0  0  0  0
    0.8660   -0.0000   -0.0000 N   0  0  0  0  0  0  0  0  0  0  0  0
    0.0000   -0.5000   -0.0000 C   0  0  0  0  0  0  0  0  0  0  0  0
   -0.9135   -0.0933   -0.0000 S   0  0  0  0  0  0  0  0  0  0  0  0
   -0.1045   -1.4945   -0.0000 N   0  0  0  0  0  0  0  0  0  0  0  0
   -1.5827   -0.8364   -0.0000 C   0  0  0  0  0  0  0  0  0  0  0  0
   -1.0827   -1.7024   -0.0000 C   0  0  0  0  0  0  0  0  0  0  0  0
   -1.4894   -2.6160   -0.0000 C   0  0  0  0  0  0  0  0  0  0  0  0
   -2.4839   -2.7205   -0.0000 C   0  0  0  0  0  0  0  0  0  0  0  0
   -0.9016   -3.4250   -0.0000 C   0  0  0  0  0  0  0  0  0  0  0  0
   -2.8907   -3.6341   -0.0000 C   0  0  0  0  0  0  0  0  0  0  0  0
   -1.3084   -4.3385   -0.0000 C   0  0  0  0  0  0  0  0  0  0  0  0
   -2.3029   -4.4431   -0.0000 C   0  0  0  0  0  0  0  0  0  0  0  0
   -2.7096   -5.3566   -0.0000 F   0  0  0  0  0  0  0  0  0  0  0  0
  1  2  1  0  0  0  0
  2  3  2  0  0  0  0
  2  4  1  0  0  0  0
  3  5  1  0  0  0  0
  4  6  2  0  0  0  0
  5  7  2  0  0  0  0
  7  8  1  0  0  0  0
  8  9  2  0  0  0  0
  8 10  1  0  0  0  0
  9 11  1  0  0  0  0
 10 12  2  0  0  0  0
 10 13  1  0  0  0  0
 11 14  2  0  0  0  0
 13 15  2  0  0  0  0
 13 16  1  0  0  0  0
 14 17  1  0  0  0  0
 15 18  1  0  0  0  0
 16 19  2  0  0  0  0
 17 20  1  0  0  0  0
 18 21  2  0  0  0  0
 20 22  1  0  0  0  0
 21 23  1  0  0  0  0
 22 24  2  0  0  0  0
 22 25  1  0  0  0  0
 25 26  1  0  0  0  0
 26 27  1  0  0  0  0
 26 28  2  0  0  0  0
 27 29  1  0  0  0  0
 28 30  1  0  0  0  0
 30 31  1  0  0  0  0
 31 32  2  0  0  0  0
 31 33  1  0  0  0  0
 32 34  1  0  0  0  0
 33 35  2  0  0  0  0
 34 36  2  0  0  0  0
 36 37  1  0  0  0  0
  6  7  1  0  0  0  0
 12 14  1  0  0  0  0
 19 21  1  0  0  0  0
 29 30  2  0  0  0  0
 35 36  1  0  0  0  0
M  END
>  <S/N>
378

>  <Compound ID>
C_395

>  <PubChem CID>
155511451

>  <Isomeric SMILES>
C1=CC(=CC=C1C2=CSC(=N2)NC(=O)CSC3=NC(=C(N=N3)C4=CC=C(C=C4)Br)C5=CC=C(C=C5)Br)F

>  <IC50 (�M)>
2.8

>  <pIC50>
5.55

$$$$
C_396
Actelion Java MolfileCreator 1.0

 58 64  0  0  0  0  0  0  0  0999 V2000
    5.1962   -0.7500   -0.0000 S   0  0  0  0  0  0  0  0  0  0  0  0
    4.4462   -2.0490   -0.0000 O   0  0  0  0  0  0  0  0  0  0  0  0
    5.9462   -2.0490   -0.0000 O   0  0  0  0  0  0  0  0  0  0  0  0
    3.8971   -0.0000   -0.0000 N   0  0  0  0  0  0  0  0  0  0  0  0
    6.4952   -0.0000   -0.0000 C   0  0  0  0  0  0  0  0  0  0  0  0
    2.5981   -0.7500   -0.0000 N   0  0  0  0  0  0  0  0  0  0  0  0
    6.4952    1.5000   -0.0000 C   0  0  0  0  0  0  0  0  0  0  0  0
    7.7942   -0.7500   -0.0000 C   0  0  0  0  0  0  0  0  0  0  0  0
    1.2990   -0.0000   -0.0000 C   0  0  0  0  0  0  0  0  0  0  0  0
    5.1962    2.2500   -0.0000 N   0  0  0  0  0  0  0  0  0  0  0  0
    7.7942    2.2500   -0.0000 C   0  0  0  0  0  0  0  0  0  0  0  0
    9.0933   -0.0000   -0.0000 C   0  0  0  0  0  0  0  0  0  0  0  0
    1.2990    1.5000   -0.0000 O   0  0  0  0  0  0  0  0  0  0  0  0
    0.0000   -0.7500   -0.0000 C   0  0  0  0  0  0  0  0  0  0  0  0
    3.8971    1.5000   -0.0000 O   0  0  0  0  0  0  0  0  0  0  0  0
    5.1962    3.7500   -0.0000 O   0  0  0  0  0  0  0  0  0  0  0  0
    9.0933    1.5000   -0.0000 C   0  0  0  0  0  0  0  0  0  0  0  0
   -0.0000   -2.2500   -0.0000 C   0  0  0  0  0  0  0  0  0  0  0  0
   -1.2990    0.0000   -0.0000 C   0  0  0  0  0  0  0  0  0  0  0  0
   -1.2990   -3.0000   -0.0000 C   0  0  0  0  0  0  0  0  0  0  0  0
   -2.5981   -0.7500   -0.0000 C   0  0  0  0  0  0  0  0  0  0  0  0
   -2.5981   -2.2500   -0.0000 C   0  0  0  0  0  0  0  0  0  0  0  0
   -1.6109   -4.4672   -0.0000 C   0  0  0  0  0  0  0  0  0  0  0  0
   -3.7128   -3.2537   -0.0000 N   0  0  0  0  0  0  0  0  0  0  0  0
   -3.1027   -4.6240   -0.0000 C   0  0  0  0  0  0  0  0  0  0  0  0
   -0.6072   -5.5819   -0.0000 C   0  0  0  0  0  0  0  0  0  0  0  0
   -1.0707   -7.0085   -0.0000 C   0  0  0  0  0  0  0  0  0  0  0  0
    0.8600   -5.2701   -0.0000 C   0  0  0  0  0  0  0  0  0  0  0  0
   -2.5380   -7.3204   -0.0000 C   0  0  0  0  0  0  0  0  0  0  0  0
   -0.0670   -8.1233   -0.0000 C   0  0  0  0  0  0  0  0  0  0  0  0
    1.9747   -6.2738   -0.0000 C   0  0  0  0  0  0  0  0  0  0  0  0
    1.4701   -3.8998   -0.0000 C   0  0  0  0  0  0  0  0  0  0  0  0
   -3.0015   -8.7470   -0.0000 C   0  0  0  0  0  0  0  0  0  0  0  0
   -0.5306   -9.5498   -0.0000 C   0  0  0  0  0  0  0  0  0  0  0  0
    3.2738   -5.5238   -0.0000 C   0  0  0  0  0  0  0  0  0  0  0  0
    1.9747   -7.7738   -0.0000 C   0  0  0  0  0  0  0  0  0  0  0  0
    2.9619   -4.0566   -0.0000 N   0  0  0  0  0  0  0  0  0  0  0  0
   -1.9978   -9.8617   -0.0000 C   0  0  0  0  0  0  0  0  0  0  0  0
    4.5728   -6.2738   -0.0000 C   0  0  0  0  0  0  0  0  0  0  0  0
    3.2738   -8.5238   -0.0000 C   0  0  0  0  0  0  0  0  0  0  0  0
   -2.4613  -11.2883   -0.0000 C   0  0  0  0  0  0  0  0  0  0  0  0
    4.5728   -7.7738   -0.0000 C   0  0  0  0  0  0  0  0  0  0  0  0
    3.2738  -10.0238   -0.0000 C   0  0  0  0  0  0  0  0  0  0  0  0
    4.5728  -10.7738   -0.0000 O   0  0  0  0  0  0  0  0  0  0  0  0
    1.9747  -10.7738   -0.0000 N   0  0  0  0  0  0  0  0  0  0  0  0
    1.9747  -12.2738   -0.0000 N   0  0  0  0  0  0  0  0  0  0  0  0
    0.6757  -13.0238   -0.0000 S   0  0  0  0  0  0  0  0  0  0  0  0
   -0.0743  -11.7248   -0.0000 O   0  0  0  0  0  0  0  0  0  0  0  0
   -0.8243  -13.0238   -0.0000 O   0  0  0  0  0  0  0  0  0  0  0  0
    0.6757  -14.5238   -0.0000 C   0  0  0  0  0  0  0  0  0  0  0  0
    1.9747  -15.2738   -0.0000 C   0  0  0  0  0  0  0  0  0  0  0  0
   -0.6233  -15.2738   -0.0000 C   0  0  0  0  0  0  0  0  0  0  0  0
    3.2738  -14.5238   -0.0000 N   0  0  0  0  0  0  0  0  0  0  0  0
    1.9747  -16.7738   -0.0000 C   0  0  0  0  0  0  0  0  0  0  0  0
   -0.6233  -16.7738   -0.0000 C   0  0  0  0  0  0  0  0  0  0  0  0
    3.2738  -13.0238   -0.0000 O   0  0  0  0  0  0  0  0  0  0  0  0
    4.5728  -15.2738   -0.0000 O   0  0  0  0  0  0  0  0  0  0  0  0
    0.6757  -17.5238   -0.0000 C   0  0  0  0  0  0  0  0  0  0  0  0
  1  2  2  0  0  0  0
  1  3  2  0  0  0  0
  1  4  1  0  0  0  0
  1  5  1  0  0  0  0
  4  6  1  0  0  0  0
  5  7  2  0  0  0  0
  5  8  1  0  0  0  0
  6  9  1  0  0  0  0
  7 10  1  0  0  0  0
  7 11  1  0  0  0  0
  8 12  2  0  0  0  0
  9 13  2  0  0  0  0
  9 14  1  0  0  0  0
 10 15  2  0  0  0  0
 10 16  1  0  0  0  0
 11 17  2  0  0  0  0
 14 18  2  0  0  0  0
 14 19  1  0  0  0  0
 18 20  1  0  0  0  0
 19 21  2  0  0  0  0
 20 22  2  0  0  0  0
 20 23  1  0  0  0  0
 22 24  1  0  0  0  0
 23 25  2  0  0  0  0
 23 26  1  0  0  0  0
 26 27  1  0  0  0  0
 26 28  1  0  0  0  0
 27 29  2  0  0  0  0
 27 30  1  0  0  0  0
 28 31  1  0  0  0  0
 28 32  2  0  0  0  0
 29 33  1  0  0  0  0
 30 34  2  0  0  0  0
 31 35  2  0  0  0  0
 31 36  1  0  0  0  0
 32 37  1  0  0  0  0
 33 38  2  0  0  0  0
 35 39  1  0  0  0  0
 36 40  2  0  0  0  0
 38 41  1  0  0  0  0
 39 42  2  0  0  0  0
 40 43  1  0  0  0  0
 43 44  2  0  0  0  0
 43 45  1  0  0  0  0
 45 46  1  0  0  0  0
 46 47  1  0  0  0  0
 47 48  2  0  0  0  0
 47 49  2  0  0  0  0
 47 50  1  0  0  0  0
 50 51  2  0  0  0  0
 50 52  1  0  0  0  0
 51 53  1  0  0  0  0
 51 54  1  0  0  0  0
 52 55  2  0  0  0  0
 53 56  2  0  0  0  0
 53 57  1  0  0  0  0
 54 58  2  0  0  0  0
 12 17  1  0  0  0  0
 21 22  1  0  0  0  0
 24 25  1  0  0  0  0
 34 38  1  0  0  0  0
 35 37  1  0  0  0  0
 40 42  1  0  0  0  0
 55 58  1  0  0  0  0
M  CHG  4  10   1  16  -1  53   1  57  -1
M  END
>  <S/N>
379

>  <Compound ID>
C_396

>  <PubChem CID>
155512130

>  <Isomeric SMILES>
CC1=CC=C(C=C1)C(C2=CNC3=C2C=C(C=C3)C(=O)NNS(=O)(=O)C4=CC=CC=C4[N+](=O)[O-])C5=CNC6=C5C=C(C=C6)C(=O)NNS(=O)(=O)C7=CC=CC=C7[N+](=O)[O-]

>  <IC50 (�M)>
2.1

>  <pIC50>
5.68

$$$$
C_397
Actelion Java MolfileCreator 1.0

 19 21  0  0  0  0  0  0  0  0999 V2000
    4.3301   -2.0000   -0.0000 Cl  0  0  0  0  0  0  0  0  0  0  0  0
    3.4641   -1.5000   -0.0000 C   0  0  0  0  0  0  0  0  0  0  0  0
    3.4641   -0.5000   -0.0000 C   0  0  0  0  0  0  0  0  0  0  0  0
    2.5981   -2.0000   -0.0000 C   0  0  0  0  0  0  0  0  0  0  0  0
    4.3301   -0.0000   -0.0000 N   0  0  0  0  0  0  0  0  0  0  0  0
    2.5981    0.0000   -0.0000 C   0  0  0  0  0  0  0  0  0  0  0  0
    1.7321   -1.5000   -0.0000 C   0  0  0  0  0  0  0  0  0  0  0  0
    1.7321   -0.5000   -0.0000 C   0  0  0  0  0  0  0  0  0  0  0  0
    0.8660   -0.0000   -0.0000 C   0  0  0  0  0  0  0  0  0  0  0  0
    0.8660    1.0000   -0.0000 O   0  0  0  0  0  0  0  0  0  0  0  0
    0.0000   -0.5000   -0.0000 N   0  0  0  0  0  0  0  0  0  0  0  0
   -0.9135   -0.0933   -0.0000 N   0  0  0  0  0  0  0  0  0  0  0  0
   -0.1045   -1.4945   -0.0000 C   0  0  0  0  0  0  0  0  0  0  0  0
   -1.5827   -0.8364   -0.0000 N   0  0  0  0  0  0  0  0  0  0  0  0
   -1.0827   -1.7024   -0.0000 C   0  0  0  0  0  0  0  0  0  0  0  0
    0.5646   -2.2377   -0.0000 C   0  0  0  0  0  0  0  0  0  0  0  0
   -1.3917   -2.6535   -0.0000 C   0  0  0  0  0  0  0  0  0  0  0  0
    0.2556   -3.1887   -0.0000 C   0  0  0  0  0  0  0  0  0  0  0  0
   -0.7226   -3.3966   -0.0000 C   0  0  0  0  0  0  0  0  0  0  0  0
  1  2  1  0  0  0  0
  2  3  2  0  0  0  0
  2  4  1  0  0  0  0
  3  5  1  0  0  0  0
  3  6  1  0  0  0  0
  4  7  2  0  0  0  0
  6  8  2  0  0  0  0
  8  9  1  0  0  0  0
  9 10  2  0  0  0  0
  9 11  1  0  0  0  0
 11 12  1  0  0  0  0
 11 13  1  0  0  0  0
 12 14  2  0  0  0  0
 13 15  2  0  0  0  0
 13 16  1  0  0  0  0
 15 17  1  0  0  0  0
 16 18  2  0  0  0  0
 17 19  2  0  0  0  0
  7  8  1  0  0  0  0
 14 15  1  0  0  0  0
 18 19  1  0  0  0  0
M  END
>  <S/N>
380

>  <Compound ID>
C_397

>  <PubChem CID>
155512321

>  <Isomeric SMILES>
C1=CC=C2C(=C1)N=NN2C(=O)C3=CC(=C(C=C3)Cl)N

>  <IC50 (�M)>
4.32

>  <pIC50>
5.36

$$$$
C_398
Actelion Java MolfileCreator 1.0

 22 24  0  0  0  0  0  0  0  0999 V2000
    6.9282    1.5000   -0.0000 Br  0  0  0  0  0  0  0  0  0  0  0  0
    6.0622    1.0000   -0.0000 C   0  0  0  0  0  0  0  0  0  0  0  0
    5.1962    1.5000   -0.0000 C   0  0  0  0  0  0  0  0  0  0  0  0
    6.0622   -0.0000   -0.0000 C   0  0  0  0  0  0  0  0  0  0  0  0
    5.1962    2.5000   -0.0000 F   0  0  0  0  0  0  0  0  0  0  0  0
    4.3301    1.0000   -0.0000 C   0  0  0  0  0  0  0  0  0  0  0  0
    5.1962   -0.5000   -0.0000 C   0  0  0  0  0  0  0  0  0  0  0  0
    4.3301   -0.0000   -0.0000 C   0  0  0  0  0  0  0  0  0  0  0  0
    3.4641   -0.5000   -0.0000 C   0  0  0  0  0  0  0  0  0  0  0  0
    2.5981   -0.0000   -0.0000 N   0  0  0  0  0  0  0  0  0  0  0  0
    1.7321   -0.5000   -0.0000 N   0  0  0  0  0  0  0  0  0  0  0  0
    0.8660   -0.0000   -0.0000 C   0  0  0  0  0  0  0  0  0  0  0  0
    0.8660    1.0000   -0.0000 O   0  0  0  0  0  0  0  0  0  0  0  0
    0.0000   -0.5000   -0.0000 C   0  0  0  0  0  0  0  0  0  0  0  0
   -0.9135   -0.0933   -0.0000 N   0  0  0  0  0  0  0  0  0  0  0  0
   -0.1045   -1.4945   -0.0000 C   0  0  0  0  0  0  0  0  0  0  0  0
   -1.5827   -0.8364   -0.0000 C   0  0  0  0  0  0  0  0  0  0  0  0
   -1.0827   -1.7024   -0.0000 C   0  0  0  0  0  0  0  0  0  0  0  0
   -2.5827   -0.8364   -0.0000 C   0  0  0  0  0  0  0  0  0  0  0  0
   -1.5827   -2.5685   -0.0000 C   0  0  0  0  0  0  0  0  0  0  0  0
   -3.0827   -1.7024   -0.0000 C   0  0  0  0  0  0  0  0  0  0  0  0
   -2.5827   -2.5685   -0.0000 C   0  0  0  0  0  0  0  0  0  0  0  0
  1  2  1  0  0  0  0
  2  3  2  0  0  0  0
  2  4  1  0  0  0  0
  3  5  1  0  0  0  0
  3  6  1  0  0  0  0
  4  7  2  0  0  0  0
  6  8  2  0  0  0  0
  8  9  1  0  0  0  0
  9 10  2  0  0  0  0
 10 11  1  0  0  0  0
 11 12  1  0  0  0  0
 12 13  2  0  0  0  0
 12 14  1  0  0  0  0
 14 15  1  0  0  0  0
 14 16  2  0  0  0  0
 15 17  1  0  0  0  0
 16 18  1  0  0  0  0
 17 19  2  0  0  0  0
 18 20  2  0  0  0  0
 19 21  1  0  0  0  0
 20 22  1  0  0  0  0
  7  8  1  0  0  0  0
 17 18  1  0  0  0  0
 21 22  2  0  0  0  0
M  END
>  <S/N>
381

>  <Compound ID>
C_398

>  <PubChem CID>
155512324

>  <Isomeric SMILES>
C1=CC=C2C(=C1)C=C(N2)C(=O)N/N=C/C3=CC(=C(C=C3)Br)F

>  <IC50 (�M)>
2.3

>  <pIC50>
5.64

$$$$
C_399
Actelion Java MolfileCreator 1.0

 29 32  0  0  0  0  0  0  0  0999 V2000
    3.4641    5.5000   -0.0000 Br  0  0  0  0  0  0  0  0  0  0  0  0
    3.4641    4.5000   -0.0000 C   0  0  0  0  0  0  0  0  0  0  0  0
    2.5981    4.0000   -0.0000 C   0  0  0  0  0  0  0  0  0  0  0  0
    4.3301    4.0000   -0.0000 C   0  0  0  0  0  0  0  0  0  0  0  0
    2.5981    3.0000   -0.0000 C   0  0  0  0  0  0  0  0  0  0  0  0
    4.3301    3.0000   -0.0000 C   0  0  0  0  0  0  0  0  0  0  0  0
    3.4641    2.5000   -0.0000 C   0  0  0  0  0  0  0  0  0  0  0  0
    3.4641    1.5000   -0.0000 C   0  0  0  0  0  0  0  0  0  0  0  0
    2.5981    1.0000   -0.0000 N   0  0  0  0  0  0  0  0  0  0  0  0
    4.3301    1.0000   -0.0000 C   0  0  0  0  0  0  0  0  0  0  0  0
    2.5981   -0.0000   -0.0000 C   0  0  0  0  0  0  0  0  0  0  0  0
    4.3301   -0.0000   -0.0000 C   0  0  0  0  0  0  0  0  0  0  0  0
    1.7321   -0.5000   -0.0000 S   0  0  0  0  0  0  0  0  0  0  0  0
    3.4641   -0.5000   -0.0000 N   0  0  0  0  0  0  0  0  0  0  0  0
    5.1962   -0.5000   -0.0000 C   0  0  0  0  0  0  0  0  0  0  0  0
    0.8660   -0.0000   -0.0000 C   0  0  0  0  0  0  0  0  0  0  0  0
    5.1962   -1.5000   -0.0000 C   0  0  0  0  0  0  0  0  0  0  0  0
    6.0622   -0.0000   -0.0000 C   0  0  0  0  0  0  0  0  0  0  0  0
    0.0000   -0.5000   -0.0000 C   0  0  0  0  0  0  0  0  0  0  0  0
    6.0622   -2.0000   -0.0000 C   0  0  0  0  0  0  0  0  0  0  0  0
    6.9282   -0.5000   -0.0000 C   0  0  0  0  0  0  0  0  0  0  0  0
   -0.8660    0.0000   -0.0000 C   0  0  0  0  0  0  0  0  0  0  0  0
   -0.0000   -1.5000   -0.0000 C   0  0  0  0  0  0  0  0  0  0  0  0
    6.9282   -1.5000   -0.0000 C   0  0  0  0  0  0  0  0  0  0  0  0
   -1.7321   -0.5000   -0.0000 C   0  0  0  0  0  0  0  0  0  0  0  0
   -0.8660   -2.0000   -0.0000 C   0  0  0  0  0  0  0  0  0  0  0  0
    7.7942   -2.0000   -0.0000 Br  0  0  0  0  0  0  0  0  0  0  0  0
   -2.5981    0.0000   -0.0000 F   0  0  0  0  0  0  0  0  0  0  0  0
   -1.7321   -1.5000   -0.0000 C   0  0  0  0  0  0  0  0  0  0  0  0
  1  2  1  0  0  0  0
  2  3  2  0  0  0  0
  2  4  1  0  0  0  0
  3  5  1  0  0  0  0
  4  6  2  0  0  0  0
  5  7  2  0  0  0  0
  7  8  1  0  0  0  0
  8  9  2  0  0  0  0
  8 10  1  0  0  0  0
  9 11  1  0  0  0  0
 10 12  2  0  0  0  0
 11 13  1  0  0  0  0
 11 14  2  0  0  0  0
 12 15  1  0  0  0  0
 13 16  1  0  0  0  0
 15 17  2  0  0  0  0
 15 18  1  0  0  0  0
 16 19  1  0  0  0  0
 17 20  1  0  0  0  0
 18 21  2  0  0  0  0
 19 22  2  0  0  0  0
 19 23  1  0  0  0  0
 20 24  2  0  0  0  0
 22 25  1  0  0  0  0
 23 26  2  0  0  0  0
 24 27  1  0  0  0  0
 25 28  1  0  0  0  0
 25 29  2  0  0  0  0
  6  7  1  0  0  0  0
 12 14  1  0  0  0  0
 21 24  1  0  0  0  0
 26 29  1  0  0  0  0
M  END
>  <S/N>
382

>  <Compound ID>
C_399

>  <PubChem CID>
155512333

>  <Isomeric SMILES>
C1=CC(=CC(=C1)F)CSC2=NC(=CC(=N2)C3=CC=C(C=C3)Br)C4=CC=C(C=C4)Br

>  <IC50 (�M)>
19

>  <pIC50>
4.72

$$$$
C_400
Actelion Java MolfileCreator 1.0

 60 68  0  0  0  0  0  0  0  0999 V2000
    1.7321    1.5000   -0.0000 Cl  0  0  0  0  0  0  0  0  0  0  0  0
    2.5981    1.0000   -0.0000 C   0  0  0  0  0  0  0  0  0  0  0  0
    2.5981   -0.0000   -0.0000 C   0  0  0  0  0  0  0  0  0  0  0  0
    3.4641    1.5000   -0.0000 C   0  0  0  0  0  0  0  0  0  0  0  0
    3.4641   -0.5000   -0.0000 C   0  0  0  0  0  0  0  0  0  0  0  0
    1.7321   -0.5000   -0.0000 C   0  0  0  0  0  0  0  0  0  0  0  0
    4.3301    1.0000   -0.0000 C   0  0  0  0  0  0  0  0  0  0  0  0
    4.3301   -0.0000   -0.0000 C   0  0  0  0  0  0  0  0  0  0  0  0
    1.7321   -1.5000   -0.0000 N   0  0  0  0  0  0  0  0  0  0  0  0
    0.8660   -0.0000   -0.0000 N   0  0  0  0  0  0  0  0  0  0  0  0
    5.1962    1.5000   -0.0000 Cl  0  0  0  0  0  0  0  0  0  0  0  0
    0.9230   -2.0878   -0.0000 N   0  0  0  0  0  0  0  0  0  0  0  0
    2.5411   -2.0878   -0.0000 C   0  0  0  0  0  0  0  0  0  0  0  0
    0.0000   -0.5000   -0.0000 C   0  0  0  0  0  0  0  0  0  0  0  0
    1.2321   -3.0388   -0.0000 C   0  0  0  0  0  0  0  0  0  0  0  0
    3.4921   -1.7788   -0.0000 S   0  0  0  0  0  0  0  0  0  0  0  0
    2.2321   -3.0388   -0.0000 O   0  0  0  0  0  0  0  0  0  0  0  0
   -0.8660    0.0000   -0.0000 C   0  0  0  0  0  0  0  0  0  0  0  0
   -0.0000   -1.5000   -0.0000 C   0  0  0  0  0  0  0  0  0  0  0  0
    0.6443   -3.8479   -0.0000 C   0  0  0  0  0  0  0  0  0  0  0  0
   -1.7321   -0.5000   -0.0000 C   0  0  0  0  0  0  0  0  0  0  0  0
   -0.8660   -2.0000   -0.0000 C   0  0  0  0  0  0  0  0  0  0  0  0
   -0.3503   -3.7433   -0.0000 C   0  0  0  0  0  0  0  0  0  0  0  0
    1.0510   -4.7614   -0.0000 C   0  0  0  0  0  0  0  0  0  0  0  0
   -1.7321   -1.5000   -0.0000 C   0  0  0  0  0  0  0  0  0  0  0  0
   -0.7570   -2.8298   -0.0000 O   0  0  0  0  0  0  0  0  0  0  0  0
   -0.9380   -4.5523   -0.0000 O   0  0  0  0  0  0  0  0  0  0  0  0
    0.4632   -5.5704   -0.0000 C   0  0  0  0  0  0  0  0  0  0  0  0
   -2.5981   -2.0000   -0.0000 N   0  0  0  0  0  0  0  0  0  0  0  0
   -0.5313   -5.4659   -0.0000 C   0  0  0  0  0  0  0  0  0  0  0  0
    0.8700   -6.4840   -0.0000 C   0  0  0  0  0  0  0  0  0  0  0  0
   -3.4641   -1.5000   -0.0000 C   0  0  0  0  0  0  0  0  0  0  0  0
   -1.1191   -6.2749   -0.0000 C   0  0  0  0  0  0  0  0  0  0  0  0
    0.2822   -7.2930   -0.0000 C   0  0  0  0  0  0  0  0  0  0  0  0
   -4.3301   -2.0000   -0.0000 N   0  0  0  0  0  0  0  0  0  0  0  0
   -3.4641   -0.5000   -0.0000 C   0  0  0  0  0  0  0  0  0  0  0  0
   -0.7124   -7.1885   -0.0000 C   0  0  0  0  0  0  0  0  0  0  0  0
   -5.2437   -1.5933   -0.0000 N   0  0  0  0  0  0  0  0  0  0  0  0
   -4.4347   -2.9945   -0.0000 C   0  0  0  0  0  0  0  0  0  0  0  0
   -4.3301    0.0000   -0.0000 C   0  0  0  0  0  0  0  0  0  0  0  0
   -2.5981    0.0000   -0.0000 C   0  0  0  0  0  0  0  0  0  0  0  0
   -5.9128   -2.3364   -0.0000 C   0  0  0  0  0  0  0  0  0  0  0  0
   -3.6915   -3.6637   -0.0000 S   0  0  0  0  0  0  0  0  0  0  0  0
   -5.4128   -3.2024   -0.0000 O   0  0  0  0  0  0  0  0  0  0  0  0
   -5.1962   -0.5000   -0.0000 Cl  0  0  0  0  0  0  0  0  0  0  0  0
   -4.3301    1.0000   -0.0000 C   0  0  0  0  0  0  0  0  0  0  0  0
   -2.5981    1.0000   -0.0000 C   0  0  0  0  0  0  0  0  0  0  0  0
   -6.9073   -2.2319   -0.0000 C   0  0  0  0  0  0  0  0  0  0  0  0
   -3.4641    1.5000   -0.0000 C   0  0  0  0  0  0  0  0  0  0  0  0
   -7.3141   -1.3183   -0.0000 C   0  0  0  0  0  0  0  0  0  0  0  0
   -7.4951   -3.0409   -0.0000 C   0  0  0  0  0  0  0  0  0  0  0  0
   -3.4641    2.5000   -0.0000 Cl  0  0  0  0  0  0  0  0  0  0  0  0
   -8.3086   -1.2138   -0.0000 C   0  0  0  0  0  0  0  0  0  0  0  0
   -6.7263   -0.5093   -0.0000 C   0  0  0  0  0  0  0  0  0  0  0  0
   -8.4896   -2.9364   -0.0000 C   0  0  0  0  0  0  0  0  0  0  0  0
   -8.8964   -2.0228   -0.0000 O   0  0  0  0  0  0  0  0  0  0  0  0
   -8.7153   -0.3003   -0.0000 C   0  0  0  0  0  0  0  0  0  0  0  0
   -7.1330    0.4042   -0.0000 C   0  0  0  0  0  0  0  0  0  0  0  0
   -9.0774   -3.7454   -0.0000 O   0  0  0  0  0  0  0  0  0  0  0  0
   -8.1275    0.5088   -0.0000 C   0  0  0  0  0  0  0  0  0  0  0  0
  1  2  1  0  0  0  0
  2  3  2  0  0  0  0
  2  4  1  0  0  0  0
  3  5  1  0  0  0  0
  3  6  1  0  0  0  0
  4  7  2  0  0  0  0
  5  8  2  0  0  0  0
  6  9  1  0  0  0  0
  6 10  1  0  0  0  0
  7 11  1  0  0  0  0
  9 12  1  0  0  0  0
  9 13  1  0  0  0  0
 10 14  1  0  0  0  0
 12 15  2  0  0  0  0
 13 16  2  0  0  0  0
 13 17  1  0  0  0  0
 14 18  2  0  0  0  0
 14 19  1  0  0  0  0
 15 20  1  0  0  0  0
 18 21  1  0  0  0  0
 19 22  2  0  0  0  0
 20 23  1  0  0  0  0
 20 24  2  0  0  0  0
 21 25  2  0  0  0  0
 23 26  2  0  0  0  0
 23 27  1  0  0  0  0
 24 28  1  0  0  0  0
 25 29  1  0  0  0  0
 27 30  1  0  0  0  0
 28 31  2  0  0  0  0
 29 32  1  0  0  0  0
 30 33  2  0  0  0  0
 31 34  1  0  0  0  0
 32 35  1  0  0  0  0
 32 36  1  0  0  0  0
 33 37  1  0  0  0  0
 35 38  1  0  0  0  0
 35 39  1  0  0  0  0
 36 40  2  0  0  0  0
 36 41  1  0  0  0  0
 38 42  2  0  0  0  0
 39 43  2  0  0  0  0
 39 44  1  0  0  0  0
 40 45  1  0  0  0  0
 40 46  1  0  0  0  0
 41 47  2  0  0  0  0
 42 48  1  0  0  0  0
 46 49  2  0  0  0  0
 48 50  1  0  0  0  0
 48 51  2  0  0  0  0
 49 52  1  0  0  0  0
 50 53  2  0  0  0  0
 50 54  1  0  0  0  0
 51 55  1  0  0  0  0
 53 56  1  0  0  0  0
 53 57  1  0  0  0  0
 54 58  2  0  0  0  0
 55 59  2  0  0  0  0
 57 60  2  0  0  0  0
  7  8  1  0  0  0  0
 15 17  1  0  0  0  0
 22 25  1  0  0  0  0
 28 30  1  0  0  0  0
 34 37  2  0  0  0  0
 42 44  1  0  0  0  0
 47 49  1  0  0  0  0
 55 56  1  0  0  0  0
 58 60  1  0  0  0  0
M  END
>  <S/N>
383

>  <Compound ID>
C_400

>  <PubChem CID>
155512866

>  <Isomeric SMILES>
C1=CC=C2C(=C1)C=C(C(=O)O2)C3=NN(C(=S)O3)C(C4=C(C=C(C=C4)Cl)Cl)NC5=CC=C(C=C5)NC(C6=C(C=C(C=C6)Cl)Cl)N7C(=S)OC(=N7)C8=CC(=O)OC9=CC=CC=C98

>  <IC50 (�M)>
0.07

>  <pIC50>
7.15

$$$$
C_401
Actelion Java MolfileCreator 1.0

 25 28  0  0  0  0  0  0  0  0999 V2000
    2.7026    0.9945   -0.0000 S   0  0  0  0  0  0  0  0  0  0  0  0
    2.5981   -0.0000   -0.0000 C   0  0  0  0  0  0  0  0  0  0  0  0
    3.6808    1.2024   -0.0000 C   0  0  0  0  0  0  0  0  0  0  0  0
    3.5116   -0.4067   -0.0000 N   0  0  0  0  0  0  0  0  0  0  0  0
    1.7321   -0.5000   -0.0000 N   0  0  0  0  0  0  0  0  0  0  0  0
    4.1808    0.3364   -0.0000 C   0  0  0  0  0  0  0  0  0  0  0  0
    0.8660   -0.0000   -0.0000 N   0  0  0  0  0  0  0  0  0  0  0  0
    5.1753    0.2319   -0.0000 C   0  0  0  0  0  0  0  0  0  0  0  0
    0.0000   -0.5000   -0.0000 C   0  0  0  0  0  0  0  0  0  0  0  0
    5.5820   -0.6817   -0.0000 C   0  0  0  0  0  0  0  0  0  0  0  0
    5.7631    1.0409   -0.0000 C   0  0  0  0  0  0  0  0  0  0  0  0
   -0.9135   -0.0933   -0.0000 C   0  0  0  0  0  0  0  0  0  0  0  0
   -0.1045   -1.4945   -0.0000 C   0  0  0  0  0  0  0  0  0  0  0  0
    6.5765   -0.7862   -0.0000 C   0  0  0  0  0  0  0  0  0  0  0  0
    6.7576    0.9364   -0.0000 C   0  0  0  0  0  0  0  0  0  0  0  0
   -1.1215    0.8849   -0.0000 O   0  0  0  0  0  0  0  0  0  0  0  0
   -1.5827   -0.8364   -0.0000 N   0  0  0  0  0  0  0  0  0  0  0  0
   -1.0827   -1.7024   -0.0000 C   0  0  0  0  0  0  0  0  0  0  0  0
    0.5646   -2.2377   -0.0000 C   0  0  0  0  0  0  0  0  0  0  0  0
    7.1643    0.0228   -0.0000 C   0  0  0  0  0  0  0  0  0  0  0  0
   -1.3917   -2.6535   -0.0000 C   0  0  0  0  0  0  0  0  0  0  0  0
    0.2556   -3.1887   -0.0000 C   0  0  0  0  0  0  0  0  0  0  0  0
    8.1588   -0.0817   -0.0000 C   0  0  0  0  0  0  0  0  0  0  0  0
   -0.7226   -3.3966   -0.0000 C   0  0  0  0  0  0  0  0  0  0  0  0
    0.9247   -3.9319   -0.0000 F   0  0  0  0  0  0  0  0  0  0  0  0
  1  2  1  0  0  0  0
  1  3  1  0  0  0  0
  2  4  2  0  0  0  0
  2  5  1  0  0  0  0
  3  6  2  0  0  0  0
  5  7  2  3  0  0  0
  6  8  1  0  0  0  0
  7  9  1  0  0  0  0
  8 10  2  0  0  0  0
  8 11  1  0  0  0  0
  9 12  2  0  0  0  0
  9 13  1  0  0  0  0
 10 14  1  0  0  0  0
 11 15  2  0  0  0  0
 12 16  1  0  0  0  0
 12 17  1  0  0  0  0
 13 18  2  0  0  0  0
 13 19  1  0  0  0  0
 14 20  2  0  0  0  0
 18 21  1  0  0  0  0
 19 22  2  0  0  0  0
 20 23  1  0  0  0  0
 21 24  2  0  0  0  0
 22 25  1  0  0  0  0
  4  6  1  0  0  0  0
 15 20  1  0  0  0  0
 17 18  1  0  0  0  0
 22 24  1  0  0  0  0
M  END
>  <S/N>
384

>  <Compound ID>
C_401

>  <PubChem CID>
155513004

>  <Isomeric SMILES>
CC1=CC=C(C=C1)C2=CSC(=N2)N=NC3=C(NC4=C3C=C(C=C4)F)O

>  <IC50 (�M)>
5.3

>  <pIC50>
5.28

$$$$
C_402
Actelion Java MolfileCreator 1.0

 36 40  0  0  0  0  0  0  0  0999 V2000
    6.9872   -7.1837   -0.0000 O   0  0  0  0  0  0  0  0  0  0  0  0
    5.9927   -7.0792   -0.0000 C   0  0  0  0  0  0  0  0  0  0  0  0
    5.5859   -6.1656   -0.0000 C   0  0  0  0  0  0  0  0  0  0  0  0
    5.4049   -7.8882   -0.0000 C   0  0  0  0  0  0  0  0  0  0  0  0
    4.5914   -6.0611   -0.0000 C   0  0  0  0  0  0  0  0  0  0  0  0
    6.1737   -5.3566   -0.0000 C   0  0  0  0  0  0  0  0  0  0  0  0
    4.4104   -7.7837   -0.0000 C   0  0  0  0  0  0  0  0  0  0  0  0
    5.8116   -8.8017   -0.0000 C   0  0  0  0  0  0  0  0  0  0  0  0
    4.0036   -6.8701   -0.0000 O   0  0  0  0  0  0  0  0  0  0  0  0
    4.1847   -5.1476   -0.0000 C   0  0  0  0  0  0  0  0  0  0  0  0
    7.1682   -5.4611   -0.0000 O   0  0  0  0  0  0  0  0  0  0  0  0
    5.7670   -4.4431   -0.0000 C   0  0  0  0  0  0  0  0  0  0  0  0
    3.8226   -8.5927   -0.0000 C   0  0  0  0  0  0  0  0  0  0  0  0
    5.2238   -9.6108   -0.0000 C   0  0  0  0  0  0  0  0  0  0  0  0
    4.7725   -4.3385   -0.0000 C   0  0  0  0  0  0  0  0  0  0  0  0
    4.2293   -9.5062   -0.0000 C   0  0  0  0  0  0  0  0  0  0  0  0
    4.3657   -3.4250   -0.0000 O   0  0  0  0  0  0  0  0  0  0  0  0
    3.6415  -10.3152   -0.0000 O   0  0  0  0  0  0  0  0  0  0  0  0
    4.9535   -2.6160   -0.0000 C   0  0  0  0  0  0  0  0  0  0  0  0
    4.5468   -1.7024   -0.0000 C   0  0  0  0  0  0  0  0  0  0  0  0
    5.0468   -0.8364   -0.0000 N   0  0  0  0  0  0  0  0  0  0  0  0
    3.5686   -1.4945   -0.0000 C   0  0  0  0  0  0  0  0  0  0  0  0
    4.3776   -0.0933   -0.0000 N   0  0  0  0  0  0  0  0  0  0  0  0
    3.4641   -0.5000   -0.0000 N   0  0  0  0  0  0  0  0  0  0  0  0
    2.5981   -0.0000   -0.0000 C   0  0  0  0  0  0  0  0  0  0  0  0
    1.7321   -0.5000   -0.0000 C   0  0  0  0  0  0  0  0  0  0  0  0
    1.7321   -1.5000   -0.0000 O   0  0  0  0  0  0  0  0  0  0  0  0
    0.8660   -0.0000   -0.0000 N   0  0  0  0  0  0  0  0  0  0  0  0
    0.0000   -0.5000   -0.0000 C   0  0  0  0  0  0  0  0  0  0  0  0
   -0.8660    0.0000   -0.0000 C   0  0  0  0  0  0  0  0  0  0  0  0
   -0.0000   -1.5000   -0.0000 C   0  0  0  0  0  0  0  0  0  0  0  0
   -1.7321   -0.5000   -0.0000 C   0  0  0  0  0  0  0  0  0  0  0  0
   -0.8660   -2.0000   -0.0000 C   0  0  0  0  0  0  0  0  0  0  0  0
   -2.5981    0.0000   -0.0000 O   0  0  0  0  0  0  0  0  0  0  0  0
   -1.7321   -1.5000   -0.0000 C   0  0  0  0  0  0  0  0  0  0  0  0
   -2.5981   -2.0000   -0.0000 O   0  0  0  0  0  0  0  0  0  0  0  0
  1  2  2  0  0  0  0
  2  3  1  0  0  0  0
  2  4  1  0  0  0  0
  3  5  2  0  0  0  0
  3  6  1  0  0  0  0
  4  7  2  0  0  0  0
  4  8  1  0  0  0  0
  5  9  1  0  0  0  0
  5 10  1  0  0  0  0
  6 11  1  0  0  0  0
  6 12  2  0  0  0  0
  7 13  1  0  0  0  0
  8 14  2  0  0  0  0
 10 15  2  0  0  0  0
 13 16  2  0  0  0  0
 15 17  1  0  0  0  0
 16 18  1  0  0  0  0
 17 19  1  0  0  0  0
 19 20  1  0  0  0  0
 20 21  1  0  0  0  0
 20 22  2  0  0  0  0
 21 23  2  0  0  0  0
 22 24  1  0  0  0  0
 24 25  1  0  0  0  0
 25 26  1  0  0  0  0
 26 27  2  0  0  0  0
 26 28  1  0  0  0  0
 28 29  1  0  0  0  0
 29 30  2  0  0  0  0
 29 31  1  0  0  0  0
 30 32  1  0  0  0  0
 31 33  2  0  0  0  0
 32 34  1  0  0  0  0
 32 35  2  0  0  0  0
 35 36  1  0  0  0  0
  7  9  1  0  0  0  0
 12 15  1  0  0  0  0
 14 16  1  0  0  0  0
 23 24  1  0  0  0  0
 33 35  1  0  0  0  0
M  END
>  <S/N>
385

>  <Compound ID>
C_402

>  <PubChem CID>
155513999

>  <Isomeric SMILES>
C1=CC(=C(C=C1NC(=O)CN2C=C(N=N2)COC3=CC(=C4C(=C3)OC5=C(C4=O)C=CC(=C5)O)O)O)O

>  <IC50 (�M)>
6.13

>  <pIC50>
5.21

$$$$
C_403
Actelion Java MolfileCreator 1.0

 58 64  0  0  0  0  0  0  0  0999 V2000
    5.1962   -0.7500   -0.0000 S   0  0  0  0  0  0  0  0  0  0  0  0
    4.4462   -2.0490   -0.0000 O   0  0  0  0  0  0  0  0  0  0  0  0
    5.9462   -2.0490   -0.0000 O   0  0  0  0  0  0  0  0  0  0  0  0
    3.8971   -0.0000   -0.0000 N   0  0  0  0  0  0  0  0  0  0  0  0
    6.4952   -0.0000   -0.0000 C   0  0  0  0  0  0  0  0  0  0  0  0
    2.5981   -0.7500   -0.0000 N   0  0  0  0  0  0  0  0  0  0  0  0
    7.7942   -0.7500   -0.0000 C   0  0  0  0  0  0  0  0  0  0  0  0
    6.4952    1.5000   -0.0000 C   0  0  0  0  0  0  0  0  0  0  0  0
    1.2990   -0.0000   -0.0000 C   0  0  0  0  0  0  0  0  0  0  0  0
    9.0933   -0.0000   -0.0000 C   0  0  0  0  0  0  0  0  0  0  0  0
    7.7942    2.2500   -0.0000 C   0  0  0  0  0  0  0  0  0  0  0  0
    1.2990    1.5000   -0.0000 O   0  0  0  0  0  0  0  0  0  0  0  0
    0.0000   -0.7500   -0.0000 C   0  0  0  0  0  0  0  0  0  0  0  0
    9.0933    1.5000   -0.0000 C   0  0  0  0  0  0  0  0  0  0  0  0
   -0.0000   -2.2500   -0.0000 C   0  0  0  0  0  0  0  0  0  0  0  0
   -1.2990    0.0000   -0.0000 C   0  0  0  0  0  0  0  0  0  0  0  0
   10.3923    2.2500   -0.0000 N   0  0  0  0  0  0  0  0  0  0  0  0
   -1.2990   -3.0000   -0.0000 C   0  0  0  0  0  0  0  0  0  0  0  0
   -2.5981   -0.7500   -0.0000 C   0  0  0  0  0  0  0  0  0  0  0  0
   11.6914    1.5000   -0.0000 O   0  0  0  0  0  0  0  0  0  0  0  0
   10.3923    3.7500   -0.0000 O   0  0  0  0  0  0  0  0  0  0  0  0
   -2.5981   -2.2500   -0.0000 C   0  0  0  0  0  0  0  0  0  0  0  0
   -1.6109   -4.4672   -0.0000 C   0  0  0  0  0  0  0  0  0  0  0  0
   -3.7128   -3.2537   -0.0000 N   0  0  0  0  0  0  0  0  0  0  0  0
   -3.1027   -4.6240   -0.0000 C   0  0  0  0  0  0  0  0  0  0  0  0
   -0.6072   -5.5819   -0.0000 C   0  0  0  0  0  0  0  0  0  0  0  0
   -1.0707   -7.0085   -0.0000 C   0  0  0  0  0  0  0  0  0  0  0  0
    0.8600   -5.2701   -0.0000 C   0  0  0  0  0  0  0  0  0  0  0  0
   -2.5380   -7.3204   -0.0000 C   0  0  0  0  0  0  0  0  0  0  0  0
   -0.0670   -8.1233   -0.0000 C   0  0  0  0  0  0  0  0  0  0  0  0
    1.9747   -6.2738   -0.0000 C   0  0  0  0  0  0  0  0  0  0  0  0
    1.4701   -3.8998   -0.0000 C   0  0  0  0  0  0  0  0  0  0  0  0
   -3.0015   -8.7470   -0.0000 C   0  0  0  0  0  0  0  0  0  0  0  0
   -0.5306   -9.5498   -0.0000 C   0  0  0  0  0  0  0  0  0  0  0  0
    3.2738   -5.5238   -0.0000 C   0  0  0  0  0  0  0  0  0  0  0  0
    1.9747   -7.7738   -0.0000 C   0  0  0  0  0  0  0  0  0  0  0  0
    2.9619   -4.0566   -0.0000 N   0  0  0  0  0  0  0  0  0  0  0  0
   -1.9978   -9.8617   -0.0000 C   0  0  0  0  0  0  0  0  0  0  0  0
    4.5728   -6.2738   -0.0000 C   0  0  0  0  0  0  0  0  0  0  0  0
    3.2738   -8.5238   -0.0000 C   0  0  0  0  0  0  0  0  0  0  0  0
   -2.4613  -11.2883   -0.0000 C   0  0  0  0  0  0  0  0  0  0  0  0
    4.5728   -7.7738   -0.0000 C   0  0  0  0  0  0  0  0  0  0  0  0
    3.2738  -10.0238   -0.0000 C   0  0  0  0  0  0  0  0  0  0  0  0
    4.5728  -10.7738   -0.0000 O   0  0  0  0  0  0  0  0  0  0  0  0
    1.9747  -10.7738   -0.0000 N   0  0  0  0  0  0  0  0  0  0  0  0
    1.9747  -12.2738   -0.0000 N   0  0  0  0  0  0  0  0  0  0  0  0
    0.6757  -13.0238   -0.0000 S   0  0  0  0  0  0  0  0  0  0  0  0
   -0.0743  -11.7248   -0.0000 O   0  0  0  0  0  0  0  0  0  0  0  0
   -0.8243  -13.0238   -0.0000 O   0  0  0  0  0  0  0  0  0  0  0  0
    0.6757  -14.5238   -0.0000 C   0  0  0  0  0  0  0  0  0  0  0  0
   -0.6233  -15.2738   -0.0000 C   0  0  0  0  0  0  0  0  0  0  0  0
    1.9747  -15.2738   -0.0000 C   0  0  0  0  0  0  0  0  0  0  0  0
   -0.6233  -16.7738   -0.0000 C   0  0  0  0  0  0  0  0  0  0  0  0
    1.9747  -16.7738   -0.0000 C   0  0  0  0  0  0  0  0  0  0  0  0
    0.6757  -17.5238   -0.0000 C   0  0  0  0  0  0  0  0  0  0  0  0
    0.6757  -19.0238   -0.0000 N   0  0  0  0  0  0  0  0  0  0  0  0
   -0.6233  -19.7738   -0.0000 O   0  0  0  0  0  0  0  0  0  0  0  0
    1.9747  -19.7738   -0.0000 O   0  0  0  0  0  0  0  0  0  0  0  0
  1  2  2  0  0  0  0
  1  3  2  0  0  0  0
  1  4  1  0  0  0  0
  1  5  1  0  0  0  0
  4  6  1  0  0  0  0
  5  7  2  0  0  0  0
  5  8  1  0  0  0  0
  6  9  1  0  0  0  0
  7 10  1  0  0  0  0
  8 11  2  0  0  0  0
  9 12  2  0  0  0  0
  9 13  1  0  0  0  0
 10 14  2  0  0  0  0
 13 15  2  0  0  0  0
 13 16  1  0  0  0  0
 14 17  1  0  0  0  0
 15 18  1  0  0  0  0
 16 19  2  0  0  0  0
 17 20  2  0  0  0  0
 17 21  1  0  0  0  0
 18 22  2  0  0  0  0
 18 23  1  0  0  0  0
 22 24  1  0  0  0  0
 23 25  2  0  0  0  0
 23 26  1  0  0  0  0
 26 27  1  0  0  0  0
 26 28  1  0  0  0  0
 27 29  2  0  0  0  0
 27 30  1  0  0  0  0
 28 31  1  0  0  0  0
 28 32  2  0  0  0  0
 29 33  1  0  0  0  0
 30 34  2  0  0  0  0
 31 35  2  0  0  0  0
 31 36  1  0  0  0  0
 32 37  1  0  0  0  0
 33 38  2  0  0  0  0
 35 39  1  0  0  0  0
 36 40  2  0  0  0  0
 38 41  1  0  0  0  0
 39 42  2  0  0  0  0
 40 43  1  0  0  0  0
 43 44  2  0  0  0  0
 43 45  1  0  0  0  0
 45 46  1  0  0  0  0
 46 47  1  0  0  0  0
 47 48  2  0  0  0  0
 47 49  2  0  0  0  0
 47 50  1  0  0  0  0
 50 51  2  0  0  0  0
 50 52  1  0  0  0  0
 51 53  1  0  0  0  0
 52 54  2  0  0  0  0
 53 55  2  0  0  0  0
 55 56  1  0  0  0  0
 56 57  2  0  0  0  0
 56 58  1  0  0  0  0
 11 14  1  0  0  0  0
 19 22  1  0  0  0  0
 24 25  1  0  0  0  0
 34 38  1  0  0  0  0
 35 37  1  0  0  0  0
 40 42  1  0  0  0  0
 54 55  1  0  0  0  0
M  CHG  4  17   1  21  -1  56   1  58  -1
M  END
>  <S/N>
386

>  <Compound ID>
C_403

>  <PubChem CID>
155514095

>  <Isomeric SMILES>
CC1=CC=C(C=C1)C(C2=CNC3=C2C=C(C=C3)C(=O)NNS(=O)(=O)C4=CC=C(C=C4)[N+](=O)[O-])C5=CNC6=C5C=C(C=C6)C(=O)NNS(=O)(=O)C7=CC=C(C=C7)[N+](=O)[O-]

>  <IC50 (�M)>
2.1

>  <pIC50>
5.68

$$$$
C_404
Actelion Java MolfileCreator 1.0

 25 28  0  0  0  0  0  0  0  0999 V2000
    5.6808    2.9345   -0.0000 Cl  0  0  0  0  0  0  0  0  0  0  0  0
    5.1808    2.0685   -0.0000 C   0  0  0  0  0  0  0  0  0  0  0  0
    4.1808    2.0685   -0.0000 C   0  0  0  0  0  0  0  0  0  0  0  0
    5.6808    1.2024   -0.0000 C   0  0  0  0  0  0  0  0  0  0  0  0
    3.6808    1.2024   -0.0000 C   0  0  0  0  0  0  0  0  0  0  0  0
    5.1808    0.3364   -0.0000 C   0  0  0  0  0  0  0  0  0  0  0  0
    2.7026    0.9945   -0.0000 N   0  0  0  0  0  0  0  0  0  0  0  0
    4.1808    0.3364   -0.0000 C   0  0  0  0  0  0  0  0  0  0  0  0
    2.5981   -0.0000   -0.0000 C   0  0  0  0  0  0  0  0  0  0  0  0
    3.5116   -0.4067   -0.0000 S   0  0  0  0  0  0  0  0  0  0  0  0
    1.7321   -0.5000   -0.0000 S   0  0  0  0  0  0  0  0  0  0  0  0
    0.8660   -0.0000   -0.0000 C   0  0  0  0  0  0  0  0  0  0  0  0
    0.0000   -0.5000   -0.0000 C   0  0  0  0  0  0  0  0  0  0  0  0
   -0.9135   -0.0933   -0.0000 N   0  0  0  0  0  0  0  0  0  0  0  0
   -0.1045   -1.4945   -0.0000 C   0  0  0  0  0  0  0  0  0  0  0  0
   -1.5827   -0.8364   -0.0000 N   0  0  0  0  0  0  0  0  0  0  0  0
   -1.0827   -1.7024   -0.0000 N   0  0  0  0  0  0  0  0  0  0  0  0
   -1.4894   -2.6160   -0.0000 C   0  0  0  0  0  0  0  0  0  0  0  0
   -0.9016   -3.4250   -0.0000 C   0  0  0  0  0  0  0  0  0  0  0  0
   -1.3084   -4.3385   -0.0000 C   0  0  0  0  0  0  0  0  0  0  0  0
    0.0929   -3.3205   -0.0000 C   0  0  0  0  0  0  0  0  0  0  0  0
   -0.7206   -5.1476   -0.0000 C   0  0  0  0  0  0  0  0  0  0  0  0
    0.6807   -4.1295   -0.0000 C   0  0  0  0  0  0  0  0  0  0  0  0
    0.2739   -5.0430   -0.0000 C   0  0  0  0  0  0  0  0  0  0  0  0
    0.8617   -5.8520   -0.0000 Cl  0  0  0  0  0  0  0  0  0  0  0  0
  1  2  1  0  0  0  0
  2  3  2  0  0  0  0
  2  4  1  0  0  0  0
  3  5  1  0  0  0  0
  4  6  2  0  0  0  0
  5  7  1  0  0  0  0
  5  8  2  0  0  0  0
  7  9  2  0  0  0  0
  8 10  1  0  0  0  0
  9 11  1  0  0  0  0
 11 12  1  0  0  0  0
 12 13  1  0  0  0  0
 13 14  1  0  0  0  0
 13 15  2  0  0  0  0
 14 16  2  0  0  0  0
 15 17  1  0  0  0  0
 17 18  1  0  0  0  0
 18 19  1  0  0  0  0
 19 20  2  0  0  0  0
 19 21  1  0  0  0  0
 20 22  1  0  0  0  0
 21 23  2  0  0  0  0
 22 24  2  0  0  0  0
 24 25  1  0  0  0  0
  6  8  1  0  0  0  0
  9 10  1  0  0  0  0
 16 17  1  0  0  0  0
 23 24  1  0  0  0  0
M  END
>  <S/N>
387

>  <Compound ID>
C_404

>  <PubChem CID>
155514524

>  <Isomeric SMILES>
C1=CC(=CC=C1CN2C=C(N=N2)CSC3=NC4=C(S3)C=CC(=C4)Cl)Cl

>  <IC50 (�M)>
20

>  <pIC50>
4.7

$$$$
C_405
Actelion Java MolfileCreator 1.0

 25 27  0  0  0  0  0  0  0  0999 V2000
   -0.4062    5.5235   -0.0000 Cl  0  0  0  0  0  0  0  0  0  0  0  0
    0.7119    4.5167   -0.0000 C   0  0  0  0  0  0  0  0  0  0  0  0
    0.3991    3.0450   -0.0000 C   0  0  0  0  0  0  0  0  0  0  0  0
    2.1429    4.9817   -0.0000 C   0  0  0  0  0  0  0  0  0  0  0  0
   -1.0319    2.5800   -0.0000 Cl  0  0  0  0  0  0  0  0  0  0  0  0
    1.5338    2.0793   -0.0000 C   0  0  0  0  0  0  0  0  0  0  0  0
    3.2611    3.9749   -0.0000 C   0  0  0  0  0  0  0  0  0  0  0  0
    2.9482    2.5032   -0.0000 C   0  0  0  0  0  0  0  0  0  0  0  0
    4.6920    4.4398   -0.0000 Cl  0  0  0  0  0  0  0  0  0  0  0  0
    4.0664    1.4964   -0.0000 N   0  0  0  0  0  0  0  0  0  0  0  0
    3.9091   -0.0000   -0.0000 C   0  0  0  0  0  0  0  0  0  0  0  0
    5.5381    1.8092   -0.0000 C   0  0  0  0  0  0  0  0  0  0  0  0
    5.2836   -0.6120   -0.0000 S   0  0  0  0  0  0  0  0  0  0  0  0
    2.6061   -0.7523   -0.0000 N   0  0  0  0  0  0  0  0  0  0  0  0
    6.2904    0.5062   -0.0000 C   0  0  0  0  0  0  0  0  0  0  0  0
    6.1501    3.1837   -0.0000 C   0  0  0  0  0  0  0  0  0  0  0  0
    1.3030   -0.0000   -0.0000 C   0  0  0  0  0  0  0  0  0  0  0  0
    1.2700    1.4223   -0.0000 O   0  0  0  0  0  0  0  0  0  0  0  0
   -0.0000   -0.7523   -0.0000 C   0  0  0  0  0  0  0  0  0  0  0  0
    0.0000   -2.2569   -0.0000 C   0  0  0  0  0  0  0  0  0  0  0  0
   -1.3030   -0.0000   -0.0000 C   0  0  0  0  0  0  0  0  0  0  0  0
   -1.3030   -3.0092   -0.0000 C   0  0  0  0  0  0  0  0  0  0  0  0
    1.3030   -3.0092   -0.0000 C   0  0  0  0  0  0  0  0  0  0  0  0
   -2.6061   -0.7523   -0.0000 C   0  0  0  0  0  0  0  0  0  0  0  0
   -2.6061   -2.2569   -0.0000 C   0  0  0  0  0  0  0  0  0  0  0  0
  1  2  1  0  0  0  0
  2  3  2  0  0  0  0
  2  4  1  0  0  0  0
  3  5  1  0  0  0  0
  3  6  1  0  0  0  0
  4  7  2  0  0  0  0
  6  8  2  0  0  0  0
  7  9  1  0  0  0  0
  8 10  1  0  0  0  0
 10 11  1  0  0  0  0
 10 12  1  0  0  0  0
 11 13  1  0  0  0  0
 11 14  2  3  0  0  0
 12 15  2  0  0  0  0
 12 16  1  0  0  0  0
 14 17  1  0  0  0  0
 17 18  2  0  0  0  0
 17 19  1  0  0  0  0
 19 20  2  0  0  0  0
 19 21  1  0  0  0  0
 20 22  1  0  0  0  0
 20 23  1  0  0  0  0
 21 24  2  0  0  0  0
 22 25  2  0  0  0  0
  7  8  1  0  0  0  0
 13 15  1  0  0  0  0
 24 25  1  0  0  0  0
M  END
>  <S/N>
388

>  <Compound ID>
C_405

>  <PubChem CID>
155514589

>  <Isomeric SMILES>
CC1=CC=CC=C1C(=O)N=C2N(C(=CS2)C)C3=CC(=C(C=C3Cl)Cl)Cl

>  <IC50 (�M)>
0.15

>  <pIC50>
6.82

$$$$
C_406
Actelion Java MolfileCreator 1.0

 42 49  0  0  0  0  0  0  0  0999 V2000
    7.8655   -2.3899   -0.0000 O   0  0  0  0  0  0  0  0  0  0  0  0
    6.4952   -3.0000   -0.0000 C   0  0  0  0  0  0  0  0  0  0  0  0
    8.8692   -3.5046   -0.0000 C   0  0  0  0  0  0  0  0  0  0  0  0
    6.6520   -4.4918   -0.0000 N   0  0  0  0  0  0  0  0  0  0  0  0
    5.1962   -2.2500   -0.0000 C   0  0  0  0  0  0  0  0  0  0  0  0
    8.1192   -4.8037   -0.0000 N   0  0  0  0  0  0  0  0  0  0  0  0
   10.3610   -3.3478   -0.0000 C   0  0  0  0  0  0  0  0  0  0  0  0
    5.1962   -0.7500   -0.0000 C   0  0  0  0  0  0  0  0  0  0  0  0
    3.8971   -3.0000   -0.0000 C   0  0  0  0  0  0  0  0  0  0  0  0
   11.3647   -4.4625   -0.0000 C   0  0  0  0  0  0  0  0  0  0  0  0
   11.1110   -2.0488   -0.0000 C   0  0  0  0  0  0  0  0  0  0  0  0
    3.8971    0.0000   -0.0000 C   0  0  0  0  0  0  0  0  0  0  0  0
    2.5981   -2.2500   -0.0000 C   0  0  0  0  0  0  0  0  0  0  0  0
   12.7350   -3.8524   -0.0000 C   0  0  0  0  0  0  0  0  0  0  0  0
   11.2079   -5.9543   -0.0000 C   0  0  0  0  0  0  0  0  0  0  0  0
   12.5782   -2.3606   -0.0000 N   0  0  0  0  0  0  0  0  0  0  0  0
   10.5009   -0.6785   -0.0000 C   0  0  0  0  0  0  0  0  0  0  0  0
    2.5981   -0.7500   -0.0000 C   0  0  0  0  0  0  0  0  0  0  0  0
   13.9485   -4.7341   -0.0000 C   0  0  0  0  0  0  0  0  0  0  0  0
   12.4214   -6.8360   -0.0000 C   0  0  0  0  0  0  0  0  0  0  0  0
    1.2990   -0.0000   -0.0000 C   0  0  0  0  0  0  0  0  0  0  0  0
   13.7917   -6.2259   -0.0000 C   0  0  0  0  0  0  0  0  0  0  0  0
    1.2990    1.5000   -0.0000 C   0  0  0  0  0  0  0  0  0  0  0  0
    0.0000   -0.7500   -0.0000 C   0  0  0  0  0  0  0  0  0  0  0  0
    2.5126    2.3817   -0.0000 C   0  0  0  0  0  0  0  0  0  0  0  0
    0.0855    2.3817   -0.0000 C   0  0  0  0  0  0  0  0  0  0  0  0
   -1.3703   -0.1399   -0.0000 C   0  0  0  0  0  0  0  0  0  0  0  0
   -0.1568   -2.2418   -0.0000 C   0  0  0  0  0  0  0  0  0  0  0  0
    2.0490    3.8083   -0.0000 C   0  0  0  0  0  0  0  0  0  0  0  0
    3.9798    2.0698   -0.0000 C   0  0  0  0  0  0  0  0  0  0  0  0
    0.5490    3.8083   -0.0000 N   0  0  0  0  0  0  0  0  0  0  0  0
   -2.3740   -1.2546   -0.0000 C   0  0  0  0  0  0  0  0  0  0  0  0
   -1.8338    1.2867   -0.0000 C   0  0  0  0  0  0  0  0  0  0  0  0
   -1.6240   -2.5537   -0.0000 N   0  0  0  0  0  0  0  0  0  0  0  0
    3.0527    4.9230   -0.0000 C   0  0  0  0  0  0  0  0  0  0  0  0
    4.9835    3.1845   -0.0000 C   0  0  0  0  0  0  0  0  0  0  0  0
   -0.3326    5.0218   -0.0000 C   0  0  0  0  0  0  0  0  0  0  0  0
   -3.8412   -0.9427   -0.0000 C   0  0  0  0  0  0  0  0  0  0  0  0
   -3.3011    1.5986   -0.0000 C   0  0  0  0  0  0  0  0  0  0  0  0
   -2.2341   -3.9240   -0.0000 C   0  0  0  0  0  0  0  0  0  0  0  0
    4.5200    4.6111   -0.0000 C   0  0  0  0  0  0  0  0  0  0  0  0
   -4.3048    0.4838   -0.0000 C   0  0  0  0  0  0  0  0  0  0  0  0
  1  2  1  0  0  0  0
  1  3  1  0  0  0  0
  2  4  2  0  0  0  0
  2  5  1  0  0  0  0
  3  6  2  0  0  0  0
  3  7  1  0  0  0  0
  5  8  2  0  0  0  0
  5  9  1  0  0  0  0
  7 10  1  0  0  0  0
  7 11  2  0  0  0  0
  8 12  1  0  0  0  0
  9 13  2  0  0  0  0
 10 14  2  0  0  0  0
 10 15  1  0  0  0  0
 11 16  1  0  0  0  0
 11 17  1  0  0  0  0
 12 18  2  0  0  0  0
 14 19  1  0  0  0  0
 15 20  2  0  0  0  0
 18 21  1  0  0  0  0
 19 22  2  0  0  0  0
 21 23  1  0  0  0  0
 21 24  1  0  0  0  0
 23 25  1  0  0  0  0
 23 26  2  0  0  0  0
 24 27  1  0  0  0  0
 24 28  2  0  0  0  0
 25 29  2  0  0  0  0
 25 30  1  0  0  0  0
 26 31  1  0  0  0  0
 27 32  2  0  0  0  0
 27 33  1  0  0  0  0
 28 34  1  0  0  0  0
 29 35  1  0  0  0  0
 30 36  2  0  0  0  0
 31 37  1  0  0  0  0
 32 38  1  0  0  0  0
 33 39  2  0  0  0  0
 34 40  1  0  0  0  0
 35 41  2  0  0  0  0
 38 42  2  0  0  0  0
  4  6  1  0  0  0  0
 13 18  1  0  0  0  0
 14 16  1  0  0  0  0
 20 22  1  0  0  0  0
 29 31  1  0  0  0  0
 32 34  1  0  0  0  0
 36 41  1  0  0  0  0
 39 42  1  0  0  0  0
M  END
>  <S/N>
389

>  <Compound ID>
C_406

>  <PubChem CID>
155514778

>  <Isomeric SMILES>
CC1=C(C2=CC=CC=C2N1)C3=NN=C(O3)C4=CC=C(C=C4)C(C5=CN(C6=CC=CC=C65)C)C7=CN(C8=CC=CC=C87)C

>  <IC50 (�M)>
20

>  <pIC50>
4.7

$$$$
C_407
Actelion Java MolfileCreator 1.0

 36 40  0  0  0  0  0  0  0  0999 V2000
    4.3776   -0.0933   -0.0000 S   0  0  0  0  0  0  0  0  0  0  0  0
    3.4641   -0.5000   -0.0000 C   0  0  0  0  0  0  0  0  0  0  0  0
    5.0468   -0.8364   -0.0000 C   0  0  0  0  0  0  0  0  0  0  0  0
    2.5981   -0.0000   -0.0000 N   0  0  0  0  0  0  0  0  0  0  0  0
    3.5686   -1.4945   -0.0000 N   0  0  0  0  0  0  0  0  0  0  0  0
    4.5468   -1.7024   -0.0000 C   0  0  0  0  0  0  0  0  0  0  0  0
    6.0413   -0.7319   -0.0000 C   0  0  0  0  0  0  0  0  0  0  0  0
    2.5981    1.0000   -0.0000 N   0  0  0  0  0  0  0  0  0  0  0  0
    2.8255   -2.1637   -0.0000 C   0  0  0  0  0  0  0  0  0  0  0  0
    4.9535   -2.6160   -0.0000 O   0  0  0  0  0  0  0  0  0  0  0  0
    6.4480    0.1817   -0.0000 C   0  0  0  0  0  0  0  0  0  0  0  0
    1.7321    1.5000   -0.0000 C   0  0  0  0  0  0  0  0  0  0  0  0
    1.8744   -1.8546   -0.0000 C   0  0  0  0  0  0  0  0  0  0  0  0
    3.0334   -3.1418   -0.0000 C   0  0  0  0  0  0  0  0  0  0  0  0
    7.4426    0.2862   -0.0000 C   0  0  0  0  0  0  0  0  0  0  0  0
    5.8603    0.9907   -0.0000 C   0  0  0  0  0  0  0  0  0  0  0  0
    0.8660    1.0000   -0.0000 O   0  0  0  0  0  0  0  0  0  0  0  0
    1.7321    2.5000   -0.0000 C   0  0  0  0  0  0  0  0  0  0  0  0
    1.1313   -2.5238   -0.0000 C   0  0  0  0  0  0  0  0  0  0  0  0
    1.6665   -0.8765   -0.0000 C   0  0  0  0  0  0  0  0  0  0  0  0
    2.2903   -3.8109   -0.0000 C   0  0  0  0  0  0  0  0  0  0  0  0
    7.8493    1.1997   -0.0000 C   0  0  0  0  0  0  0  0  0  0  0  0
    6.2670    1.9042   -0.0000 C   0  0  0  0  0  0  0  0  0  0  0  0
    0.8660    3.0000   -0.0000 C   0  0  0  0  0  0  0  0  0  0  0  0
    2.5981    3.0000   -0.0000 C   0  0  0  0  0  0  0  0  0  0  0  0
    1.3392   -3.5019   -0.0000 C   0  0  0  0  0  0  0  0  0  0  0  0
    7.2615    2.0088   -0.0000 C   0  0  0  0  0  0  0  0  0  0  0  0
   -0.0000    2.5000   -0.0000 O   0  0  0  0  0  0  0  0  0  0  0  0
    0.8660    4.0000   -0.0000 O   0  0  0  0  0  0  0  0  0  0  0  0
    2.5981    4.0000   -0.0000 C   0  0  0  0  0  0  0  0  0  0  0  0
    7.6682    2.9223   -0.0000 F   0  0  0  0  0  0  0  0  0  0  0  0
    1.7321    4.5000   -0.0000 C   0  0  0  0  0  0  0  0  0  0  0  0
    3.4641    4.5000   -0.0000 C   0  0  0  0  0  0  0  0  0  0  0  0
    1.7321    5.5000   -0.0000 C   0  0  0  0  0  0  0  0  0  0  0  0
    3.4641    5.5000   -0.0000 C   0  0  0  0  0  0  0  0  0  0  0  0
    2.5981    6.0000   -0.0000 C   0  0  0  0  0  0  0  0  0  0  0  0
  1  2  1  0  0  0  0
  1  3  1  0  0  0  0
  2  4  2  0  0  0  0
  2  5  1  0  0  0  0
  3  6  1  0  0  0  0
  3  7  2  0  0  0  0
  4  8  1  0  0  0  0
  5  9  1  0  0  0  0
  6 10  2  0  0  0  0
  7 11  1  0  0  0  0
  8 12  1  0  0  0  0
  9 13  2  0  0  0  0
  9 14  1  0  0  0  0
 11 15  2  0  0  0  0
 11 16  1  0  0  0  0
 12 17  2  0  0  0  0
 12 18  1  0  0  0  0
 13 19  1  0  0  0  0
 13 20  1  0  0  0  0
 14 21  2  0  0  0  0
 15 22  1  0  0  0  0
 16 23  2  0  0  0  0
 18 24  1  0  0  0  0
 18 25  2  0  0  0  0
 19 26  2  0  0  0  0
 22 27  2  0  0  0  0
 24 28  2  0  0  0  0
 24 29  1  0  0  0  0
 25 30  1  0  0  0  0
 27 31  1  0  0  0  0
 29 32  1  0  0  0  0
 30 33  2  0  0  0  0
 32 34  2  0  0  0  0
 33 35  1  0  0  0  0
 34 36  1  0  0  0  0
  5  6  1  0  0  0  0
 21 26  1  0  0  0  0
 23 27  1  0  0  0  0
 30 32  1  0  0  0  0
 35 36  2  0  0  0  0
M  END
>  <S/N>
390

>  <Compound ID>
C_407

>  <PubChem CID>
155515326

>  <Isomeric SMILES>
CC1=CC=CC=C1N\2C(=O)/C(=C/C3=CC=C(C=C3)F)/S/C2=N\NC(=O)C4=CC5=CC=CC=C5OC4=O

>  <IC50 (�M)>
0.09

>  <pIC50>
7.05

$$$$
C_408
Actelion Java MolfileCreator 1.0

 25 27  0  0  0  0  0  0  0  0999 V2000
    3.4641    2.5000   -0.0000 Br  0  0  0  0  0  0  0  0  0  0  0  0
    3.4641    1.5000   -0.0000 C   0  0  0  0  0  0  0  0  0  0  0  0
    2.5981    1.0000   -0.0000 C   0  0  0  0  0  0  0  0  0  0  0  0
    4.3301    1.0000   -0.0000 C   0  0  0  0  0  0  0  0  0  0  0  0
    2.5981   -0.0000   -0.0000 C   0  0  0  0  0  0  0  0  0  0  0  0
    4.3301   -0.0000   -0.0000 C   0  0  0  0  0  0  0  0  0  0  0  0
    3.4641   -0.5000   -0.0000 C   0  0  0  0  0  0  0  0  0  0  0  0
    1.7321   -0.5000   -0.0000 C   0  0  0  0  0  0  0  0  0  0  0  0
    3.4641   -1.5000   -0.0000 O   0  0  0  0  0  0  0  0  0  0  0  0
    0.8660   -0.0000   -0.0000 N   0  0  0  0  0  0  0  0  0  0  0  0
    4.3301   -2.0000   -0.0000 C   0  0  0  0  0  0  0  0  0  0  0  0
    0.0000   -0.5000   -0.0000 C   0  0  0  0  0  0  0  0  0  0  0  0
   -0.9135   -0.0933   -0.0000 S   0  0  0  0  0  0  0  0  0  0  0  0
   -0.1045   -1.4945   -0.0000 N   0  0  0  0  0  0  0  0  0  0  0  0
   -1.5827   -0.8364   -0.0000 C   0  0  0  0  0  0  0  0  0  0  0  0
   -1.0827   -1.7024   -0.0000 N   0  0  0  0  0  0  0  0  0  0  0  0
   -2.5772   -0.7319   -0.0000 C   0  0  0  0  0  0  0  0  0  0  0  0
   -2.9839    0.1817   -0.0000 C   0  0  0  0  0  0  0  0  0  0  0  0
   -3.1650   -1.5409   -0.0000 C   0  0  0  0  0  0  0  0  0  0  0  0
   -3.9785    0.2862   -0.0000 C   0  0  0  0  0  0  0  0  0  0  0  0
   -4.1595   -1.4364   -0.0000 C   0  0  0  0  0  0  0  0  0  0  0  0
   -4.3852    1.1997   -0.0000 N   0  0  0  0  0  0  0  0  0  0  0  0
   -4.5662   -0.5228   -0.0000 C   0  0  0  0  0  0  0  0  0  0  0  0
   -3.7974    2.0088   -0.0000 O   0  0  0  0  0  0  0  0  0  0  0  0
   -5.3797    1.3043   -0.0000 O   0  0  0  0  0  0  0  0  0  0  0  0
  1  2  1  0  0  0  0
  2  3  2  0  0  0  0
  2  4  1  0  0  0  0
  3  5  1  0  0  0  0
  4  6  2  0  0  0  0
  5  7  2  0  0  0  0
  5  8  1  0  0  0  0
  7  9  1  0  0  0  0
  8 10  2  0  0  0  0
  9 11  1  0  0  0  0
 10 12  1  0  0  0  0
 12 13  1  0  0  0  0
 12 14  2  0  0  0  0
 13 15  1  0  0  0  0
 14 16  1  0  0  0  0
 15 17  1  0  0  0  0
 17 18  2  0  0  0  0
 17 19  1  0  0  0  0
 18 20  1  0  0  0  0
 19 21  2  0  0  0  0
 20 22  1  0  0  0  0
 20 23  2  0  0  0  0
 22 24  2  0  0  0  0
 22 25  1  0  0  0  0
  6  7  1  0  0  0  0
 15 16  2  0  0  0  0
 21 23  1  0  0  0  0
M  CHG  2  22   1  25  -1
M  END
>  <S/N>
391

>  <Compound ID>
C_408

>  <PubChem CID>
155515892

>  <Isomeric SMILES>
COC1=C(C=C(C=C1)Br)/C=N/C2=NN=C(S2)C3=CC(=CC=C3)[N+](=O)[O-]

>  <IC50 (�M)>
2.3

>  <pIC50>
5.64

$$$$
C_409
Actelion Java MolfileCreator 1.0

 21 23  0  0  0  0  0  0  0  0999 V2000
    1.7321    1.5000   -0.0000 Cl  0  0  0  0  0  0  0  0  0  0  0  0
    2.5981    1.0000   -0.0000 C   0  0  0  0  0  0  0  0  0  0  0  0
    2.5981   -0.0000   -0.0000 C   0  0  0  0  0  0  0  0  0  0  0  0
    3.4641    1.5000   -0.0000 C   0  0  0  0  0  0  0  0  0  0  0  0
    1.7321   -0.5000   -0.0000 O   0  0  0  0  0  0  0  0  0  0  0  0
    3.4641   -0.5000   -0.0000 C   0  0  0  0  0  0  0  0  0  0  0  0
    4.3301    1.0000   -0.0000 C   0  0  0  0  0  0  0  0  0  0  0  0
    0.8660   -0.0000   -0.0000 C   0  0  0  0  0  0  0  0  0  0  0  0
    4.3301   -0.0000   -0.0000 C   0  0  0  0  0  0  0  0  0  0  0  0
    0.0000   -0.5000   -0.0000 C   0  0  0  0  0  0  0  0  0  0  0  0
    5.1962   -0.5000   -0.0000 C   0  0  0  0  0  0  0  0  0  0  0  0
   -0.8660    0.0000   -0.0000 C   0  0  0  0  0  0  0  0  0  0  0  0
   -0.0000   -1.5000   -0.0000 C   0  0  0  0  0  0  0  0  0  0  0  0
    5.3007   -1.4945   -0.0000 S   0  0  0  0  0  0  0  0  0  0  0  0
    6.1097   -0.0933   -0.0000 N   0  0  0  0  0  0  0  0  0  0  0  0
   -1.7321   -0.5000   -0.0000 C   0  0  0  0  0  0  0  0  0  0  0  0
   -0.8660   -2.0000   -0.0000 C   0  0  0  0  0  0  0  0  0  0  0  0
    6.2788   -1.7024   -0.0000 C   0  0  0  0  0  0  0  0  0  0  0  0
    6.7788   -0.8364   -0.0000 N   0  0  0  0  0  0  0  0  0  0  0  0
   -1.7321   -1.5000   -0.0000 C   0  0  0  0  0  0  0  0  0  0  0  0
    6.6856   -2.6160   -0.0000 N   0  0  0  0  0  0  0  0  0  0  0  0
  1  2  1  0  0  0  0
  2  3  2  0  0  0  0
  2  4  1  0  0  0  0
  3  5  1  0  0  0  0
  3  6  1  0  0  0  0
  4  7  2  0  0  0  0
  5  8  1  0  0  0  0
  6  9  2  0  0  0  0
  8 10  1  0  0  0  0
  9 11  1  0  0  0  0
 10 12  2  0  0  0  0
 10 13  1  0  0  0  0
 11 14  1  0  0  0  0
 11 15  2  0  0  0  0
 12 16  1  0  0  0  0
 13 17  2  0  0  0  0
 14 18  1  0  0  0  0
 15 19  1  0  0  0  0
 16 20  2  0  0  0  0
 18 21  1  0  0  0  0
  7  9  1  0  0  0  0
 17 20  1  0  0  0  0
 18 19  2  0  0  0  0
M  END
>  <S/N>
392

>  <Compound ID>
C_409

>  <PubChem CID>
155516122

>  <Isomeric SMILES>
C1=CC=C(C=C1)COC2=C(C=CC(=C2)C3=NN=C(S3)N)Cl

>  <IC50 (�M)>
2.3

>  <pIC50>
5.64

$$$$
C_410
Actelion Java MolfileCreator 1.0

 25 27  0  0  0  0  0  0  0  0999 V2000
   -0.4062    5.5235   -0.0000 Cl  0  0  0  0  0  0  0  0  0  0  0  0
    0.7119    4.5167   -0.0000 C   0  0  0  0  0  0  0  0  0  0  0  0
    0.3991    3.0450   -0.0000 C   0  0  0  0  0  0  0  0  0  0  0  0
    2.1429    4.9817   -0.0000 C   0  0  0  0  0  0  0  0  0  0  0  0
   -1.0319    2.5800   -0.0000 Cl  0  0  0  0  0  0  0  0  0  0  0  0
    1.5338    2.0793   -0.0000 C   0  0  0  0  0  0  0  0  0  0  0  0
    3.2611    3.9749   -0.0000 C   0  0  0  0  0  0  0  0  0  0  0  0
    2.9482    2.5032   -0.0000 C   0  0  0  0  0  0  0  0  0  0  0  0
    4.6920    4.4398   -0.0000 Cl  0  0  0  0  0  0  0  0  0  0  0  0
    4.0664    1.4964   -0.0000 N   0  0  0  0  0  0  0  0  0  0  0  0
    3.9091   -0.0000   -0.0000 C   0  0  0  0  0  0  0  0  0  0  0  0
    5.5381    1.8092   -0.0000 C   0  0  0  0  0  0  0  0  0  0  0  0
    5.2836   -0.6120   -0.0000 S   0  0  0  0  0  0  0  0  0  0  0  0
    2.6061   -0.7523   -0.0000 N   0  0  0  0  0  0  0  0  0  0  0  0
    6.2904    0.5062   -0.0000 C   0  0  0  0  0  0  0  0  0  0  0  0
    6.1501    3.1837   -0.0000 C   0  0  0  0  0  0  0  0  0  0  0  0
    1.3030   -0.0000   -0.0000 C   0  0  0  0  0  0  0  0  0  0  0  0
    1.2700    1.4223   -0.0000 O   0  0  0  0  0  0  0  0  0  0  0  0
   -0.0000   -0.7523   -0.0000 C   0  0  0  0  0  0  0  0  0  0  0  0
   -1.3030    0.0000   -0.0000 C   0  0  0  0  0  0  0  0  0  0  0  0
   -0.0000   -2.2569   -0.0000 C   0  0  0  0  0  0  0  0  0  0  0  0
   -2.6061   -0.7523   -0.0000 C   0  0  0  0  0  0  0  0  0  0  0  0
   -1.3030   -3.0092   -0.0000 C   0  0  0  0  0  0  0  0  0  0  0  0
   -2.6061   -2.2569   -0.0000 C   0  0  0  0  0  0  0  0  0  0  0  0
   -3.9091    0.0000   -0.0000 C   0  0  0  0  0  0  0  0  0  0  0  0
  1  2  1  0  0  0  0
  2  3  2  0  0  0  0
  2  4  1  0  0  0  0
  3  5  1  0  0  0  0
  3  6  1  0  0  0  0
  4  7  2  0  0  0  0
  6  8  2  0  0  0  0
  7  9  1  0  0  0  0
  8 10  1  0  0  0  0
 10 11  1  0  0  0  0
 10 12  1  0  0  0  0
 11 13  1  0  0  0  0
 11 14  2  3  0  0  0
 12 15  2  0  0  0  0
 12 16  1  0  0  0  0
 14 17  1  0  0  0  0
 17 18  2  0  0  0  0
 17 19  1  0  0  0  0
 19 20  2  0  0  0  0
 19 21  1  0  0  0  0
 20 22  1  0  0  0  0
 21 23  2  0  0  0  0
 22 24  2  0  0  0  0
 22 25  1  0  0  0  0
  7  8  1  0  0  0  0
 13 15  1  0  0  0  0
 23 24  1  0  0  0  0
M  END
>  <S/N>
393

>  <Compound ID>
C_410

>  <PubChem CID>
155516250

>  <Isomeric SMILES>
CC1=CC(=CC=C1)C(=O)N=C2N(C(=CS2)C)C3=CC(=C(C=C3Cl)Cl)Cl

>  <IC50 (�M)>
0.1

>  <pIC50>
7

$$$$
C_411
Actelion Java MolfileCreator 1.0

 32 35  0  0  0  0  0  0  0  0999 V2000
   10.1904   -0.5093   -0.0000 Cl  0  0  0  0  0  0  0  0  0  0  0  0
   10.7782   -1.3183   -0.0000 C   0  0  0  0  0  0  0  0  0  0  0  0
   10.3714   -2.2319   -0.0000 C   0  0  0  0  0  0  0  0  0  0  0  0
   11.7727   -1.2138   -0.0000 C   0  0  0  0  0  0  0  0  0  0  0  0
    9.3769   -2.3364   -0.0000 C   0  0  0  0  0  0  0  0  0  0  0  0
   10.9592   -3.0409   -0.0000 C   0  0  0  0  0  0  0  0  0  0  0  0
   12.3605   -2.0228   -0.0000 C   0  0  0  0  0  0  0  0  0  0  0  0
    8.7078   -1.5933   -0.0000 O   0  0  0  0  0  0  0  0  0  0  0  0
    8.8769   -3.2024   -0.0000 N   0  0  0  0  0  0  0  0  0  0  0  0
   11.9537   -2.9364   -0.0000 C   0  0  0  0  0  0  0  0  0  0  0  0
    7.7942   -2.0000   -0.0000 C   0  0  0  0  0  0  0  0  0  0  0  0
    7.8988   -2.9945   -0.0000 N   0  0  0  0  0  0  0  0  0  0  0  0
    6.9282   -1.5000   -0.0000 C   0  0  0  0  0  0  0  0  0  0  0  0
    6.9282   -0.5000   -0.0000 C   0  0  0  0  0  0  0  0  0  0  0  0
    6.0622   -2.0000   -0.0000 C   0  0  0  0  0  0  0  0  0  0  0  0
    6.0622   -0.0000   -0.0000 C   0  0  0  0  0  0  0  0  0  0  0  0
    5.1962   -1.5000   -0.0000 C   0  0  0  0  0  0  0  0  0  0  0  0
    5.1962   -0.5000   -0.0000 C   0  0  0  0  0  0  0  0  0  0  0  0
    4.3301   -0.0000   -0.0000 C   0  0  0  0  0  0  0  0  0  0  0  0
    4.3301    1.0000   -0.0000 O   0  0  0  0  0  0  0  0  0  0  0  0
    3.4641   -0.5000   -0.0000 N   0  0  0  0  0  0  0  0  0  0  0  0
    2.5981   -0.0000   -0.0000 N   0  0  0  0  0  0  0  0  0  0  0  0
    1.7321   -0.5000   -0.0000 C   0  0  0  0  0  0  0  0  0  0  0  0
    1.7321   -1.5000   -0.0000 S   0  0  0  0  0  0  0  0  0  0  0  0
    0.8660   -0.0000   -0.0000 N   0  0  0  0  0  0  0  0  0  0  0  0
    0.0000   -0.5000   -0.0000 C   0  0  0  0  0  0  0  0  0  0  0  0
   -0.8660    0.0000   -0.0000 C   0  0  0  0  0  0  0  0  0  0  0  0
   -0.0000   -1.5000   -0.0000 C   0  0  0  0  0  0  0  0  0  0  0  0
   -1.7321   -0.5000   -0.0000 C   0  0  0  0  0  0  0  0  0  0  0  0
   -0.8660   -2.0000   -0.0000 C   0  0  0  0  0  0  0  0  0  0  0  0
   -1.7321   -1.5000   -0.0000 C   0  0  0  0  0  0  0  0  0  0  0  0
   -2.5981   -2.0000   -0.0000 C   0  0  0  0  0  0  0  0  0  0  0  0
  1  2  1  0  0  0  0
  2  3  2  0  0  0  0
  2  4  1  0  0  0  0
  3  5  1  0  0  0  0
  3  6  1  0  0  0  0
  4  7  2  0  0  0  0
  5  8  1  0  0  0  0
  5  9  2  0  0  0  0
  6 10  2  0  0  0  0
  8 11  1  0  0  0  0
  9 12  1  0  0  0  0
 11 13  1  0  0  0  0
 13 14  2  0  0  0  0
 13 15  1  0  0  0  0
 14 16  1  0  0  0  0
 15 17  2  0  0  0  0
 16 18  2  0  0  0  0
 18 19  1  0  0  0  0
 19 20  2  0  0  0  0
 19 21  1  0  0  0  0
 21 22  1  0  0  0  0
 22 23  1  0  0  0  0
 23 24  2  0  0  0  0
 23 25  1  0  0  0  0
 25 26  1  0  0  0  0
 26 27  2  0  0  0  0
 26 28  1  0  0  0  0
 27 29  1  0  0  0  0
 28 30  2  0  0  0  0
 29 31  2  0  0  0  0
 31 32  1  0  0  0  0
  7 10  1  0  0  0  0
 11 12  2  0  0  0  0
 17 18  1  0  0  0  0
 30 31  1  0  0  0  0
M  END
>  <S/N>
394

>  <Compound ID>
C_411

>  <PubChem CID>
155516355

>  <Isomeric SMILES>
CC1=CC=C(C=C1)NC(=S)NNC(=O)C2=CC=C(C=C2)C3=NN=C(O3)C4=CC=CC=C4Cl

>  <IC50 (�M)>
0.4

>  <pIC50>
6.4

$$$$
C_412
Actelion Java MolfileCreator 1.0

 29 32  0  0  0  0  0  0  0  0999 V2000
   -0.4060    5.5209   -0.0000 Cl  0  0  0  0  0  0  0  0  0  0  0  0
    0.7116    4.5146   -0.0000 C   0  0  0  0  0  0  0  0  0  0  0  0
    0.3989    3.0435   -0.0000 C   0  0  0  0  0  0  0  0  0  0  0  0
    2.1419    4.9793   -0.0000 C   0  0  0  0  0  0  0  0  0  0  0  0
   -1.0314    2.5788   -0.0000 Cl  0  0  0  0  0  0  0  0  0  0  0  0
    1.5330    2.0783   -0.0000 C   0  0  0  0  0  0  0  0  0  0  0  0
    3.2595    3.9730   -0.0000 C   0  0  0  0  0  0  0  0  0  0  0  0
    2.9468    2.5020   -0.0000 C   0  0  0  0  0  0  0  0  0  0  0  0
    4.6898    4.4377   -0.0000 Cl  0  0  0  0  0  0  0  0  0  0  0  0
    4.0644    1.4957   -0.0000 N   0  0  0  0  0  0  0  0  0  0  0  0
    3.9072   -0.0000   -0.0000 C   0  0  0  0  0  0  0  0  0  0  0  0
    5.5355    1.8083   -0.0000 C   0  0  0  0  0  0  0  0  0  0  0  0
    5.2811   -0.6117   -0.0000 S   0  0  0  0  0  0  0  0  0  0  0  0
    2.6048   -0.7519   -0.0000 N   0  0  0  0  0  0  0  0  0  0  0  0
    6.2874    0.5059   -0.0000 C   0  0  0  0  0  0  0  0  0  0  0  0
    6.1471    3.1822   -0.0000 C   0  0  0  0  0  0  0  0  0  0  0  0
    1.3024   -0.0000   -0.0000 C   0  0  0  0  0  0  0  0  0  0  0  0
    1.2694    1.4217   -0.0000 O   0  0  0  0  0  0  0  0  0  0  0  0
   -0.0000   -0.7519   -0.0000 C   0  0  0  0  0  0  0  0  0  0  0  0
    0.0000   -2.2558   -0.0000 C   0  0  0  0  0  0  0  0  0  0  0  0
   -1.3024   -0.0000   -0.0000 C   0  0  0  0  0  0  0  0  0  0  0  0
    1.3024   -3.0078   -0.0000 O   0  0  0  0  0  0  0  0  0  0  0  0
   -1.3024   -3.0078   -0.0000 O   0  0  0  0  0  0  0  0  0  0  0  0
   -2.6048   -0.7519   -0.0000 C   0  0  0  0  0  0  0  0  0  0  0  0
   -2.6048   -2.2558   -0.0000 C   0  0  0  0  0  0  0  0  0  0  0  0
   -3.9072   -0.0000   -0.0000 C   0  0  0  0  0  0  0  0  0  0  0  0
   -3.9072   -3.0078   -0.0000 C   0  0  0  0  0  0  0  0  0  0  0  0
   -5.2096   -0.7519   -0.0000 C   0  0  0  0  0  0  0  0  0  0  0  0
   -5.2096   -2.2558   -0.0000 C   0  0  0  0  0  0  0  0  0  0  0  0
  1  2  1  0  0  0  0
  2  3  2  0  0  0  0
  2  4  1  0  0  0  0
  3  5  1  0  0  0  0
  3  6  1  0  0  0  0
  4  7  2  0  0  0  0
  6  8  2  0  0  0  0
  7  9  1  0  0  0  0
  8 10  1  0  0  0  0
 10 11  1  0  0  0  0
 10 12  1  0  0  0  0
 11 13  1  0  0  0  0
 11 14  2  3  0  0  0
 12 15  2  0  0  0  0
 12 16  1  0  0  0  0
 14 17  1  0  0  0  0
 17 18  2  0  0  0  0
 17 19  1  0  0  0  0
 19 20  1  0  0  0  0
 19 21  2  0  0  0  0
 20 22  2  0  0  0  0
 20 23  1  0  0  0  0
 21 24  1  0  0  0  0
 23 25  1  0  0  0  0
 24 26  2  0  0  0  0
 25 27  2  0  0  0  0
 26 28  1  0  0  0  0
 27 29  1  0  0  0  0
  7  8  1  0  0  0  0
 13 15  1  0  0  0  0
 24 25  1  0  0  0  0
 28 29  2  0  0  0  0
M  END
>  <S/N>
395

>  <Compound ID>
C_412

>  <PubChem CID>
155516406

>  <Isomeric SMILES>
CC1=CSC(=NC(=O)C2=CC3=CC=CC=C3OC2=O)N1C4=CC(=C(C=C4Cl)Cl)Cl

>  <IC50 (�M)>
0.1

>  <pIC50>
7

$$$$
C_413
Actelion Java MolfileCreator 1.0

 25 28  0  0  0  0  0  0  0  0999 V2000
    6.8022   -3.4223   -0.0000 Br  0  0  0  0  0  0  0  0  0  0  0  0
    6.3955   -2.5088   -0.0000 C   0  0  0  0  0  0  0  0  0  0  0  0
    6.9833   -1.6997   -0.0000 C   0  0  0  0  0  0  0  0  0  0  0  0
    5.4010   -2.4042   -0.0000 C   0  0  0  0  0  0  0  0  0  0  0  0
    6.5765   -0.7862   -0.0000 C   0  0  0  0  0  0  0  0  0  0  0  0
    4.9942   -1.4907   -0.0000 C   0  0  0  0  0  0  0  0  0  0  0  0
    5.5820   -0.6817   -0.0000 C   0  0  0  0  0  0  0  0  0  0  0  0
    5.1753    0.2319   -0.0000 C   0  0  0  0  0  0  0  0  0  0  0  0
    4.1808    0.3364   -0.0000 N   0  0  0  0  0  0  0  0  0  0  0  0
    3.6808    1.2024   -0.0000 N   0  0  0  0  0  0  0  0  0  0  0  0
    3.5116   -0.4067   -0.0000 C   0  0  0  0  0  0  0  0  0  0  0  0
    2.7026    0.9945   -0.0000 N   0  0  0  0  0  0  0  0  0  0  0  0
    2.5981   -0.0000   -0.0000 C   0  0  0  0  0  0  0  0  0  0  0  0
    1.7321   -0.5000   -0.0000 C   0  0  0  0  0  0  0  0  0  0  0  0
    0.8660   -0.0000   -0.0000 S   0  0  0  0  0  0  0  0  0  0  0  0
    0.0000   -0.5000   -0.0000 C   0  0  0  0  0  0  0  0  0  0  0  0
   -0.9135   -0.0933   -0.0000 S   0  0  0  0  0  0  0  0  0  0  0  0
   -0.1045   -1.4945   -0.0000 N   0  0  0  0  0  0  0  0  0  0  0  0
   -1.5827   -0.8364   -0.0000 C   0  0  0  0  0  0  0  0  0  0  0  0
   -1.0827   -1.7024   -0.0000 C   0  0  0  0  0  0  0  0  0  0  0  0
   -2.5827   -0.8364   -0.0000 C   0  0  0  0  0  0  0  0  0  0  0  0
   -1.5827   -2.5685   -0.0000 C   0  0  0  0  0  0  0  0  0  0  0  0
   -3.0827   -1.7024   -0.0000 C   0  0  0  0  0  0  0  0  0  0  0  0
   -2.5827   -2.5685   -0.0000 C   0  0  0  0  0  0  0  0  0  0  0  0
   -3.0827   -3.4345   -0.0000 Cl  0  0  0  0  0  0  0  0  0  0  0  0
  1  2  1  0  0  0  0
  2  3  2  0  0  0  0
  2  4  1  0  0  0  0
  3  5  1  0  0  0  0
  4  6  2  0  0  0  0
  5  7  2  0  0  0  0
  7  8  1  0  0  0  0
  8  9  1  0  0  0  0
  9 10  1  0  0  0  0
  9 11  1  0  0  0  0
 10 12  2  0  0  0  0
 11 13  2  0  0  0  0
 13 14  1  0  0  0  0
 14 15  1  0  0  0  0
 15 16  1  0  0  0  0
 16 17  1  0  0  0  0
 16 18  2  0  0  0  0
 17 19  1  0  0  0  0
 18 20  1  0  0  0  0
 19 21  2  0  0  0  0
 20 22  2  0  0  0  0
 21 23  1  0  0  0  0
 22 24  1  0  0  0  0
 24 25  1  0  0  0  0
  6  7  1  0  0  0  0
 12 13  1  0  0  0  0
 19 20  1  0  0  0  0
 23 24  2  0  0  0  0
M  END
>  <S/N>
396

>  <Compound ID>
C_413

>  <PubChem CID>
155516781

>  <Isomeric SMILES>
C1=CC(=CC=C1CN2C=C(N=N2)CSC3=NC4=C(S3)C=CC(=C4)Cl)Br

>  <IC50 (�M)>
20

>  <pIC50>
4.7

$$$$
C_414
Actelion Java MolfileCreator 1.0

 54 60  0  0  0  0  0  0  0  0999 V2000
    5.1962    2.2500   -0.0000 Br  0  0  0  0  0  0  0  0  0  0  0  0
    6.4952    1.5000   -0.0000 C   0  0  0  0  0  0  0  0  0  0  0  0
    6.4952   -0.0000   -0.0000 C   0  0  0  0  0  0  0  0  0  0  0  0
    7.7942    2.2500   -0.0000 C   0  0  0  0  0  0  0  0  0  0  0  0
    5.1962   -0.7500   -0.0000 S   0  0  0  0  0  0  0  0  0  0  0  0
    7.7942   -0.7500   -0.0000 C   0  0  0  0  0  0  0  0  0  0  0  0
    9.0933    1.5000   -0.0000 C   0  0  0  0  0  0  0  0  0  0  0  0
    4.4462   -2.0490   -0.0000 O   0  0  0  0  0  0  0  0  0  0  0  0
    5.9462   -2.0490   -0.0000 O   0  0  0  0  0  0  0  0  0  0  0  0
    3.8971   -0.0000   -0.0000 N   0  0  0  0  0  0  0  0  0  0  0  0
    9.0933    0.0000   -0.0000 C   0  0  0  0  0  0  0  0  0  0  0  0
    2.5981   -0.7500   -0.0000 N   0  0  0  0  0  0  0  0  0  0  0  0
    1.2990   -0.0000   -0.0000 C   0  0  0  0  0  0  0  0  0  0  0  0
    1.2990    1.5000   -0.0000 O   0  0  0  0  0  0  0  0  0  0  0  0
    0.0000   -0.7500   -0.0000 C   0  0  0  0  0  0  0  0  0  0  0  0
   -0.0000   -2.2500   -0.0000 C   0  0  0  0  0  0  0  0  0  0  0  0
   -1.2990    0.0000   -0.0000 C   0  0  0  0  0  0  0  0  0  0  0  0
   -1.2990   -3.0000   -0.0000 C   0  0  0  0  0  0  0  0  0  0  0  0
   -2.5981   -0.7500   -0.0000 C   0  0  0  0  0  0  0  0  0  0  0  0
   -2.5981   -2.2500   -0.0000 C   0  0  0  0  0  0  0  0  0  0  0  0
   -1.6109   -4.4672   -0.0000 C   0  0  0  0  0  0  0  0  0  0  0  0
   -3.7128   -3.2537   -0.0000 N   0  0  0  0  0  0  0  0  0  0  0  0
   -3.1027   -4.6240   -0.0000 C   0  0  0  0  0  0  0  0  0  0  0  0
   -0.6072   -5.5819   -0.0000 C   0  0  0  0  0  0  0  0  0  0  0  0
   -1.0707   -7.0085   -0.0000 C   0  0  0  0  0  0  0  0  0  0  0  0
    0.8600   -5.2701   -0.0000 C   0  0  0  0  0  0  0  0  0  0  0  0
   -2.5380   -7.3204   -0.0000 C   0  0  0  0  0  0  0  0  0  0  0  0
   -0.0670   -8.1233   -0.0000 C   0  0  0  0  0  0  0  0  0  0  0  0
    1.9747   -6.2738   -0.0000 C   0  0  0  0  0  0  0  0  0  0  0  0
    1.4701   -3.8998   -0.0000 C   0  0  0  0  0  0  0  0  0  0  0  0
   -3.0015   -8.7470   -0.0000 C   0  0  0  0  0  0  0  0  0  0  0  0
   -0.5306   -9.5498   -0.0000 C   0  0  0  0  0  0  0  0  0  0  0  0
    3.2738   -5.5238   -0.0000 C   0  0  0  0  0  0  0  0  0  0  0  0
    1.9747   -7.7738   -0.0000 C   0  0  0  0  0  0  0  0  0  0  0  0
    2.9619   -4.0566   -0.0000 N   0  0  0  0  0  0  0  0  0  0  0  0
   -1.9978   -9.8617   -0.0000 C   0  0  0  0  0  0  0  0  0  0  0  0
    4.5728   -6.2738   -0.0000 C   0  0  0  0  0  0  0  0  0  0  0  0
    3.2738   -8.5238   -0.0000 C   0  0  0  0  0  0  0  0  0  0  0  0
   -2.4613  -11.2883   -0.0000 C   0  0  0  0  0  0  0  0  0  0  0  0
    4.5728   -7.7738   -0.0000 C   0  0  0  0  0  0  0  0  0  0  0  0
    3.2738  -10.0238   -0.0000 C   0  0  0  0  0  0  0  0  0  0  0  0
    4.5728  -10.7738   -0.0000 O   0  0  0  0  0  0  0  0  0  0  0  0
    1.9747  -10.7738   -0.0000 N   0  0  0  0  0  0  0  0  0  0  0  0
    1.9747  -12.2738   -0.0000 N   0  0  0  0  0  0  0  0  0  0  0  0
    0.6757  -13.0238   -0.0000 S   0  0  0  0  0  0  0  0  0  0  0  0
   -0.0743  -11.7248   -0.0000 O   0  0  0  0  0  0  0  0  0  0  0  0
   -0.8243  -13.0238   -0.0000 O   0  0  0  0  0  0  0  0  0  0  0  0
    0.6757  -14.5238   -0.0000 C   0  0  0  0  0  0  0  0  0  0  0  0
   -0.6233  -15.2738   -0.0000 C   0  0  0  0  0  0  0  0  0  0  0  0
    1.9747  -15.2738   -0.0000 C   0  0  0  0  0  0  0  0  0  0  0  0
   -1.9224  -14.5238   -0.0000 Br  0  0  0  0  0  0  0  0  0  0  0  0
   -0.6233  -16.7738   -0.0000 C   0  0  0  0  0  0  0  0  0  0  0  0
    1.9747  -16.7738   -0.0000 C   0  0  0  0  0  0  0  0  0  0  0  0
    0.6757  -17.5238   -0.0000 C   0  0  0  0  0  0  0  0  0  0  0  0
  1  2  1  0  0  0  0
  2  3  2  0  0  0  0
  2  4  1  0  0  0  0
  3  5  1  0  0  0  0
  3  6  1  0  0  0  0
  4  7  2  0  0  0  0
  5  8  2  0  0  0  0
  5  9  2  0  0  0  0
  5 10  1  0  0  0  0
  6 11  2  0  0  0  0
 10 12  1  0  0  0  0
 12 13  1  0  0  0  0
 13 14  2  0  0  0  0
 13 15  1  0  0  0  0
 15 16  2  0  0  0  0
 15 17  1  0  0  0  0
 16 18  1  0  0  0  0
 17 19  2  0  0  0  0
 18 20  2  0  0  0  0
 18 21  1  0  0  0  0
 20 22  1  0  0  0  0
 21 23  2  0  0  0  0
 21 24  1  0  0  0  0
 24 25  1  0  0  0  0
 24 26  1  0  0  0  0
 25 27  2  0  0  0  0
 25 28  1  0  0  0  0
 26 29  1  0  0  0  0
 26 30  2  0  0  0  0
 27 31  1  0  0  0  0
 28 32  2  0  0  0  0
 29 33  2  0  0  0  0
 29 34  1  0  0  0  0
 30 35  1  0  0  0  0
 31 36  2  0  0  0  0
 33 37  1  0  0  0  0
 34 38  2  0  0  0  0
 36 39  1  0  0  0  0
 37 40  2  0  0  0  0
 38 41  1  0  0  0  0
 41 42  2  0  0  0  0
 41 43  1  0  0  0  0
 43 44  1  0  0  0  0
 44 45  1  0  0  0  0
 45 46  2  0  0  0  0
 45 47  2  0  0  0  0
 45 48  1  0  0  0  0
 48 49  2  0  0  0  0
 48 50  1  0  0  0  0
 49 51  1  0  0  0  0
 49 52  1  0  0  0  0
 50 53  2  0  0  0  0
 52 54  2  0  0  0  0
  7 11  1  0  0  0  0
 19 20  1  0  0  0  0
 22 23  1  0  0  0  0
 32 36  1  0  0  0  0
 33 35  1  0  0  0  0
 38 40  1  0  0  0  0
 53 54  1  0  0  0  0
M  END
>  <S/N>
397

>  <Compound ID>
C_414

>  <PubChem CID>
155517195

>  <Isomeric SMILES>
CC1=CC=C(C=C1)C(C2=CNC3=C2C=C(C=C3)C(=O)NNS(=O)(=O)C4=CC=CC=C4Br)C5=CNC6=C5C=C(C=C6)C(=O)NNS(=O)(=O)C7=CC=CC=C7Br

>  <IC50 (�M)>
0.1

>  <pIC50>
7

$$$$
C_415
Actelion Java MolfileCreator 1.0

 56 62  0  0  0  0  0  0  0  0999 V2000
    5.1962    2.2500   -0.0000 Cl  0  0  0  0  0  0  0  0  0  0  0  0
    6.4952    1.5000   -0.0000 C   0  0  0  0  0  0  0  0  0  0  0  0
    6.4952   -0.0000   -0.0000 C   0  0  0  0  0  0  0  0  0  0  0  0
    7.7942    2.2500   -0.0000 C   0  0  0  0  0  0  0  0  0  0  0  0
    5.1962   -0.7500   -0.0000 S   0  0  0  0  0  0  0  0  0  0  0  0
    7.7942   -0.7500   -0.0000 C   0  0  0  0  0  0  0  0  0  0  0  0
    9.0933    1.5000   -0.0000 C   0  0  0  0  0  0  0  0  0  0  0  0
    4.4462   -2.0490   -0.0000 O   0  0  0  0  0  0  0  0  0  0  0  0
    5.9462   -2.0490   -0.0000 O   0  0  0  0  0  0  0  0  0  0  0  0
    3.8971   -0.0000   -0.0000 N   0  0  0  0  0  0  0  0  0  0  0  0
    9.0933    0.0000   -0.0000 C   0  0  0  0  0  0  0  0  0  0  0  0
    2.5981   -0.7500   -0.0000 N   0  0  0  0  0  0  0  0  0  0  0  0
   10.3923   -0.7500   -0.0000 Cl  0  0  0  0  0  0  0  0  0  0  0  0
    1.2990   -0.0000   -0.0000 C   0  0  0  0  0  0  0  0  0  0  0  0
    1.2990    1.5000   -0.0000 O   0  0  0  0  0  0  0  0  0  0  0  0
    0.0000   -0.7500   -0.0000 C   0  0  0  0  0  0  0  0  0  0  0  0
   -0.0000   -2.2500   -0.0000 C   0  0  0  0  0  0  0  0  0  0  0  0
   -1.2990    0.0000   -0.0000 C   0  0  0  0  0  0  0  0  0  0  0  0
   -1.2990   -3.0000   -0.0000 C   0  0  0  0  0  0  0  0  0  0  0  0
   -2.5981   -0.7500   -0.0000 C   0  0  0  0  0  0  0  0  0  0  0  0
   -2.5981   -2.2500   -0.0000 C   0  0  0  0  0  0  0  0  0  0  0  0
   -1.6109   -4.4672   -0.0000 C   0  0  0  0  0  0  0  0  0  0  0  0
   -3.7128   -3.2537   -0.0000 N   0  0  0  0  0  0  0  0  0  0  0  0
   -3.1027   -4.6240   -0.0000 C   0  0  0  0  0  0  0  0  0  0  0  0
   -0.6072   -5.5819   -0.0000 C   0  0  0  0  0  0  0  0  0  0  0  0
   -1.0707   -7.0085   -0.0000 C   0  0  0  0  0  0  0  0  0  0  0  0
    0.8600   -5.2701   -0.0000 C   0  0  0  0  0  0  0  0  0  0  0  0
   -2.5380   -7.3204   -0.0000 C   0  0  0  0  0  0  0  0  0  0  0  0
   -0.0670   -8.1233   -0.0000 C   0  0  0  0  0  0  0  0  0  0  0  0
    1.9747   -6.2738   -0.0000 C   0  0  0  0  0  0  0  0  0  0  0  0
    1.4701   -3.8998   -0.0000 C   0  0  0  0  0  0  0  0  0  0  0  0
   -3.0015   -8.7470   -0.0000 C   0  0  0  0  0  0  0  0  0  0  0  0
   -0.5306   -9.5498   -0.0000 C   0  0  0  0  0  0  0  0  0  0  0  0
    3.2738   -5.5238   -0.0000 C   0  0  0  0  0  0  0  0  0  0  0  0
    1.9747   -7.7738   -0.0000 C   0  0  0  0  0  0  0  0  0  0  0  0
    2.9619   -4.0566   -0.0000 N   0  0  0  0  0  0  0  0  0  0  0  0
   -1.9978   -9.8617   -0.0000 C   0  0  0  0  0  0  0  0  0  0  0  0
    4.5728   -6.2738   -0.0000 C   0  0  0  0  0  0  0  0  0  0  0  0
    3.2738   -8.5238   -0.0000 C   0  0  0  0  0  0  0  0  0  0  0  0
   -2.4613  -11.2883   -0.0000 C   0  0  0  0  0  0  0  0  0  0  0  0
    4.5728   -7.7738   -0.0000 C   0  0  0  0  0  0  0  0  0  0  0  0
    3.2738  -10.0238   -0.0000 C   0  0  0  0  0  0  0  0  0  0  0  0
    4.5728  -10.7738   -0.0000 O   0  0  0  0  0  0  0  0  0  0  0  0
    1.9747  -10.7738   -0.0000 N   0  0  0  0  0  0  0  0  0  0  0  0
    1.9747  -12.2738   -0.0000 N   0  0  0  0  0  0  0  0  0  0  0  0
    0.6757  -13.0238   -0.0000 S   0  0  0  0  0  0  0  0  0  0  0  0
   -0.0743  -11.7248   -0.0000 O   0  0  0  0  0  0  0  0  0  0  0  0
   -0.8243  -13.0238   -0.0000 O   0  0  0  0  0  0  0  0  0  0  0  0
    0.6757  -14.5238   -0.0000 C   0  0  0  0  0  0  0  0  0  0  0  0
   -0.6233  -15.2738   -0.0000 C   0  0  0  0  0  0  0  0  0  0  0  0
    1.9747  -15.2738   -0.0000 C   0  0  0  0  0  0  0  0  0  0  0  0
   -1.9224  -14.5238   -0.0000 Cl  0  0  0  0  0  0  0  0  0  0  0  0
   -0.6233  -16.7738   -0.0000 C   0  0  0  0  0  0  0  0  0  0  0  0
    1.9747  -16.7738   -0.0000 C   0  0  0  0  0  0  0  0  0  0  0  0
    0.6757  -17.5238   -0.0000 C   0  0  0  0  0  0  0  0  0  0  0  0
    3.2738  -17.5238   -0.0000 Cl  0  0  0  0  0  0  0  0  0  0  0  0
  1  2  1  0  0  0  0
  2  3  2  0  0  0  0
  2  4  1  0  0  0  0
  3  5  1  0  0  0  0
  3  6  1  0  0  0  0
  4  7  2  0  0  0  0
  5  8  2  0  0  0  0
  5  9  2  0  0  0  0
  5 10  1  0  0  0  0
  6 11  2  0  0  0  0
 10 12  1  0  0  0  0
 11 13  1  0  0  0  0
 12 14  1  0  0  0  0
 14 15  2  0  0  0  0
 14 16  1  0  0  0  0
 16 17  2  0  0  0  0
 16 18  1  0  0  0  0
 17 19  1  0  0  0  0
 18 20  2  0  0  0  0
 19 21  2  0  0  0  0
 19 22  1  0  0  0  0
 21 23  1  0  0  0  0
 22 24  2  0  0  0  0
 22 25  1  0  0  0  0
 25 26  1  0  0  0  0
 25 27  1  0  0  0  0
 26 28  2  0  0  0  0
 26 29  1  0  0  0  0
 27 30  1  0  0  0  0
 27 31  2  0  0  0  0
 28 32  1  0  0  0  0
 29 33  2  0  0  0  0
 30 34  2  0  0  0  0
 30 35  1  0  0  0  0
 31 36  1  0  0  0  0
 32 37  2  0  0  0  0
 34 38  1  0  0  0  0
 35 39  2  0  0  0  0
 37 40  1  0  0  0  0
 38 41  2  0  0  0  0
 39 42  1  0  0  0  0
 42 43  2  0  0  0  0
 42 44  1  0  0  0  0
 44 45  1  0  0  0  0
 45 46  1  0  0  0  0
 46 47  2  0  0  0  0
 46 48  2  0  0  0  0
 46 49  1  0  0  0  0
 49 50  2  0  0  0  0
 49 51  1  0  0  0  0
 50 52  1  0  0  0  0
 50 53  1  0  0  0  0
 51 54  2  0  0  0  0
 53 55  2  0  0  0  0
 54 56  1  0  0  0  0
  7 11  1  0  0  0  0
 20 21  1  0  0  0  0
 23 24  1  0  0  0  0
 33 37  1  0  0  0  0
 34 36  1  0  0  0  0
 39 41  1  0  0  0  0
 54 55  1  0  0  0  0
M  END
>  <S/N>
398

>  <Compound ID>
C_415

>  <PubChem CID>
155517485

>  <Isomeric SMILES>
CC1=CC=C(C=C1)C(C2=CNC3=C2C=C(C=C3)C(=O)NNS(=O)(=O)C4=C(C=CC(=C4)Cl)Cl)C5=CNC6=C5C=C(C=C6)C(=O)NNS(=O)(=O)C7=C(C=CC(=C7)Cl)Cl

>  <IC50 (�M)>
0.1

>  <pIC50>
7

$$$$
C_416
Actelion Java MolfileCreator 1.0

 29 32  0  0  0  0  0  0  0  0999 V2000
    4.4347    0.9945   -0.0000 S   0  0  0  0  0  0  0  0  0  0  0  0
    4.3301   -0.0000   -0.0000 C   0  0  0  0  0  0  0  0  0  0  0  0
    5.4128    1.2024   -0.0000 C   0  0  0  0  0  0  0  0  0  0  0  0
    5.2437   -0.4067   -0.0000 N   0  0  0  0  0  0  0  0  0  0  0  0
    3.4641   -0.5000   -0.0000 C   0  0  0  0  0  0  0  0  0  0  0  0
    5.9128    0.3364   -0.0000 C   0  0  0  0  0  0  0  0  0  0  0  0
    3.4641   -1.5000   -0.0000 O   0  0  0  0  0  0  0  0  0  0  0  0
    2.5981   -0.0000   -0.0000 N   0  0  0  0  0  0  0  0  0  0  0  0
    6.9073    0.2319   -0.0000 C   0  0  0  0  0  0  0  0  0  0  0  0
    1.7321   -0.5000   -0.0000 N   0  0  0  0  0  0  0  0  0  0  0  0
    7.3141   -0.6817   -0.0000 C   0  0  0  0  0  0  0  0  0  0  0  0
    7.4951    1.0409   -0.0000 C   0  0  0  0  0  0  0  0  0  0  0  0
    0.8660   -0.0000   -0.0000 C   0  0  0  0  0  0  0  0  0  0  0  0
    6.7263   -1.4907   -0.0000 O   0  0  0  0  0  0  0  0  0  0  0  0
    8.3086   -0.7862   -0.0000 O   0  0  0  0  0  0  0  0  0  0  0  0
    8.4896    0.9364   -0.0000 C   0  0  0  0  0  0  0  0  0  0  0  0
    0.0000   -0.5000   -0.0000 C   0  0  0  0  0  0  0  0  0  0  0  0
    8.8964    0.0228   -0.0000 C   0  0  0  0  0  0  0  0  0  0  0  0
    9.0774    1.7454   -0.0000 C   0  0  0  0  0  0  0  0  0  0  0  0
   -0.8660    0.0000   -0.0000 C   0  0  0  0  0  0  0  0  0  0  0  0
   -0.0000   -1.5000   -0.0000 C   0  0  0  0  0  0  0  0  0  0  0  0
    9.8909   -0.0817   -0.0000 C   0  0  0  0  0  0  0  0  0  0  0  0
   10.0719    1.6409   -0.0000 C   0  0  0  0  0  0  0  0  0  0  0  0
   -0.8660    1.0000   -0.0000 O   0  0  0  0  0  0  0  0  0  0  0  0
   -1.7321   -0.5000   -0.0000 C   0  0  0  0  0  0  0  0  0  0  0  0
   -0.8660   -2.0000   -0.0000 C   0  0  0  0  0  0  0  0  0  0  0  0
   10.4787    0.7273   -0.0000 C   0  0  0  0  0  0  0  0  0  0  0  0
   -1.7321   -1.5000   -0.0000 C   0  0  0  0  0  0  0  0  0  0  0  0
   -0.8660   -3.0000   -0.0000 O   0  0  0  0  0  0  0  0  0  0  0  0
  1  2  1  0  0  0  0
  1  3  1  0  0  0  0
  2  4  2  0  0  0  0
  2  5  1  0  0  0  0
  3  6  2  0  0  0  0
  5  7  2  0  0  0  0
  5  8  1  0  0  0  0
  6  9  1  0  0  0  0
  8 10  1  0  0  0  0
  9 11  1  0  0  0  0
  9 12  2  0  0  0  0
 10 13  2  0  0  0  0
 11 14  2  0  0  0  0
 11 15  1  0  0  0  0
 12 16  1  0  0  0  0
 13 17  1  0  0  0  0
 15 18  1  0  0  0  0
 16 19  1  0  0  0  0
 17 20  2  0  0  0  0
 17 21  1  0  0  0  0
 18 22  1  0  0  0  0
 19 23  2  0  0  0  0
 20 24  1  0  0  0  0
 20 25  1  0  0  0  0
 21 26  2  0  0  0  0
 22 27  2  0  0  0  0
 25 28  2  0  0  0  0
 26 29  1  0  0  0  0
  4  6  1  0  0  0  0
 16 18  2  0  0  0  0
 23 27  1  0  0  0  0
 26 28  1  0  0  0  0
M  END
>  <S/N>
399

>  <Compound ID>
C_416

>  <PubChem CID>
155517504

>  <Isomeric SMILES>
C1=CC=C2C(=C1)C=C(C(=O)O2)C3=CSC(=N3)C(=O)N/N=C/C4=C(C=CC(=C4)O)O

>  <IC50 (�M)>
6.2

>  <pIC50>
5.21

$$$$
C_417
Actelion Java MolfileCreator 1.0

 33 36  0  0  0  0  0  0  0  0999 V2000
   10.1904   -0.5093   -0.0000 Cl  0  0  0  0  0  0  0  0  0  0  0  0
   10.7782   -1.3183   -0.0000 C   0  0  0  0  0  0  0  0  0  0  0  0
   10.3714   -2.2319   -0.0000 C   0  0  0  0  0  0  0  0  0  0  0  0
   11.7727   -1.2138   -0.0000 C   0  0  0  0  0  0  0  0  0  0  0  0
    9.3769   -2.3364   -0.0000 C   0  0  0  0  0  0  0  0  0  0  0  0
   10.9592   -3.0409   -0.0000 C   0  0  0  0  0  0  0  0  0  0  0  0
   12.3605   -2.0228   -0.0000 C   0  0  0  0  0  0  0  0  0  0  0  0
    8.7078   -1.5933   -0.0000 O   0  0  0  0  0  0  0  0  0  0  0  0
    8.8769   -3.2024   -0.0000 N   0  0  0  0  0  0  0  0  0  0  0  0
   11.9537   -2.9364   -0.0000 C   0  0  0  0  0  0  0  0  0  0  0  0
    7.7942   -2.0000   -0.0000 C   0  0  0  0  0  0  0  0  0  0  0  0
    7.8988   -2.9945   -0.0000 N   0  0  0  0  0  0  0  0  0  0  0  0
    6.9282   -1.5000   -0.0000 C   0  0  0  0  0  0  0  0  0  0  0  0
    6.9282   -0.5000   -0.0000 C   0  0  0  0  0  0  0  0  0  0  0  0
    6.0622   -2.0000   -0.0000 C   0  0  0  0  0  0  0  0  0  0  0  0
    6.0622   -0.0000   -0.0000 C   0  0  0  0  0  0  0  0  0  0  0  0
    5.1962   -1.5000   -0.0000 C   0  0  0  0  0  0  0  0  0  0  0  0
    5.1962   -0.5000   -0.0000 C   0  0  0  0  0  0  0  0  0  0  0  0
    4.3301   -0.0000   -0.0000 C   0  0  0  0  0  0  0  0  0  0  0  0
    4.3301    1.0000   -0.0000 O   0  0  0  0  0  0  0  0  0  0  0  0
    3.4641   -0.5000   -0.0000 N   0  0  0  0  0  0  0  0  0  0  0  0
    2.5981   -0.0000   -0.0000 N   0  0  0  0  0  0  0  0  0  0  0  0
    1.7321   -0.5000   -0.0000 C   0  0  0  0  0  0  0  0  0  0  0  0
    1.7321   -1.5000   -0.0000 S   0  0  0  0  0  0  0  0  0  0  0  0
    0.8660   -0.0000   -0.0000 N   0  0  0  0  0  0  0  0  0  0  0  0
    0.0000   -0.5000   -0.0000 C   0  0  0  0  0  0  0  0  0  0  0  0
   -0.8660    0.0000   -0.0000 C   0  0  0  0  0  0  0  0  0  0  0  0
   -0.0000   -1.5000   -0.0000 C   0  0  0  0  0  0  0  0  0  0  0  0
   -0.8660    1.0000   -0.0000 O   0  0  0  0  0  0  0  0  0  0  0  0
   -1.7321   -0.5000   -0.0000 C   0  0  0  0  0  0  0  0  0  0  0  0
   -0.8660   -2.0000   -0.0000 C   0  0  0  0  0  0  0  0  0  0  0  0
   -1.7321    1.5000   -0.0000 C   0  0  0  0  0  0  0  0  0  0  0  0
   -1.7321   -1.5000   -0.0000 C   0  0  0  0  0  0  0  0  0  0  0  0
  1  2  1  0  0  0  0
  2  3  2  0  0  0  0
  2  4  1  0  0  0  0
  3  5  1  0  0  0  0
  3  6  1  0  0  0  0
  4  7  2  0  0  0  0
  5  8  1  0  0  0  0
  5  9  2  0  0  0  0
  6 10  2  0  0  0  0
  8 11  1  0  0  0  0
  9 12  1  0  0  0  0
 11 13  1  0  0  0  0
 13 14  2  0  0  0  0
 13 15  1  0  0  0  0
 14 16  1  0  0  0  0
 15 17  2  0  0  0  0
 16 18  2  0  0  0  0
 18 19  1  0  0  0  0
 19 20  2  0  0  0  0
 19 21  1  0  0  0  0
 21 22  1  0  0  0  0
 22 23  1  0  0  0  0
 23 24  2  0  0  0  0
 23 25  1  0  0  0  0
 25 26  1  0  0  0  0
 26 27  2  0  0  0  0
 26 28  1  0  0  0  0
 27 29  1  0  0  0  0
 27 30  1  0  0  0  0
 28 31  2  0  0  0  0
 29 32  1  0  0  0  0
 30 33  2  0  0  0  0
  7 10  1  0  0  0  0
 11 12  2  0  0  0  0
 17 18  1  0  0  0  0
 31 33  1  0  0  0  0
M  END
>  <S/N>
400

>  <Compound ID>
C_417

>  <PubChem CID>
155518299

>  <Isomeric SMILES>
COC1=CC=CC=C1NC(=S)NNC(=O)C2=CC=C(C=C2)C3=NN=C(O3)C4=CC=CC=C4Cl

>  <IC50 (�M)>
0.4

>  <pIC50>
6.4

$$$$
C_418
Actelion Java MolfileCreator 1.0

 39 43  0  0  0  0  0  0  0  0999 V2000
    6.9872   -7.1837   -0.0000 O   0  0  0  0  0  0  0  0  0  0  0  0
    5.9927   -7.0792   -0.0000 C   0  0  0  0  0  0  0  0  0  0  0  0
    5.5859   -6.1656   -0.0000 C   0  0  0  0  0  0  0  0  0  0  0  0
    5.4049   -7.8882   -0.0000 C   0  0  0  0  0  0  0  0  0  0  0  0
    4.5914   -6.0611   -0.0000 C   0  0  0  0  0  0  0  0  0  0  0  0
    6.1737   -5.3566   -0.0000 C   0  0  0  0  0  0  0  0  0  0  0  0
    4.4104   -7.7837   -0.0000 C   0  0  0  0  0  0  0  0  0  0  0  0
    5.8116   -8.8017   -0.0000 C   0  0  0  0  0  0  0  0  0  0  0  0
    4.0036   -6.8701   -0.0000 O   0  0  0  0  0  0  0  0  0  0  0  0
    4.1847   -5.1476   -0.0000 C   0  0  0  0  0  0  0  0  0  0  0  0
    7.1682   -5.4611   -0.0000 O   0  0  0  0  0  0  0  0  0  0  0  0
    5.7670   -4.4431   -0.0000 C   0  0  0  0  0  0  0  0  0  0  0  0
    3.8226   -8.5927   -0.0000 C   0  0  0  0  0  0  0  0  0  0  0  0
    5.2238   -9.6108   -0.0000 C   0  0  0  0  0  0  0  0  0  0  0  0
    4.7725   -4.3385   -0.0000 C   0  0  0  0  0  0  0  0  0  0  0  0
    4.2293   -9.5062   -0.0000 C   0  0  0  0  0  0  0  0  0  0  0  0
    4.3657   -3.4250   -0.0000 O   0  0  0  0  0  0  0  0  0  0  0  0
    3.6415  -10.3152   -0.0000 O   0  0  0  0  0  0  0  0  0  0  0  0
    4.9535   -2.6160   -0.0000 C   0  0  0  0  0  0  0  0  0  0  0  0
    4.0483  -11.2288   -0.0000 C   0  0  0  0  0  0  0  0  0  0  0  0
    4.5468   -1.7024   -0.0000 C   0  0  0  0  0  0  0  0  0  0  0  0
    5.0468   -0.8364   -0.0000 N   0  0  0  0  0  0  0  0  0  0  0  0
    3.5686   -1.4945   -0.0000 C   0  0  0  0  0  0  0  0  0  0  0  0
    4.3776   -0.0933   -0.0000 N   0  0  0  0  0  0  0  0  0  0  0  0
    3.4641   -0.5000   -0.0000 N   0  0  0  0  0  0  0  0  0  0  0  0
    2.5981   -0.0000   -0.0000 C   0  0  0  0  0  0  0  0  0  0  0  0
    1.7321   -0.5000   -0.0000 C   0  0  0  0  0  0  0  0  0  0  0  0
    1.7321   -1.5000   -0.0000 O   0  0  0  0  0  0  0  0  0  0  0  0
    0.8660   -0.0000   -0.0000 N   0  0  0  0  0  0  0  0  0  0  0  0
    0.0000   -0.5000   -0.0000 C   0  0  0  0  0  0  0  0  0  0  0  0
   -0.8660    0.0000   -0.0000 C   0  0  0  0  0  0  0  0  0  0  0  0
   -0.0000   -1.5000   -0.0000 C   0  0  0  0  0  0  0  0  0  0  0  0
   -1.7321   -0.5000   -0.0000 C   0  0  0  0  0  0  0  0  0  0  0  0
   -0.8660   -2.0000   -0.0000 C   0  0  0  0  0  0  0  0  0  0  0  0
   -2.5981    0.0000   -0.0000 O   0  0  0  0  0  0  0  0  0  0  0  0
   -1.7321   -1.5000   -0.0000 C   0  0  0  0  0  0  0  0  0  0  0  0
   -3.4641   -0.5000   -0.0000 C   0  0  0  0  0  0  0  0  0  0  0  0
   -2.5981   -2.0000   -0.0000 O   0  0  0  0  0  0  0  0  0  0  0  0
   -2.5981   -3.0000   -0.0000 C   0  0  0  0  0  0  0  0  0  0  0  0
  1  2  2  0  0  0  0
  2  3  1  0  0  0  0
  2  4  1  0  0  0  0
  3  5  2  0  0  0  0
  3  6  1  0  0  0  0
  4  7  2  0  0  0  0
  4  8  1  0  0  0  0
  5  9  1  0  0  0  0
  5 10  1  0  0  0  0
  6 11  1  0  0  0  0
  6 12  2  0  0  0  0
  7 13  1  0  0  0  0
  8 14  2  0  0  0  0
 10 15  2  0  0  0  0
 13 16  2  0  0  0  0
 15 17  1  0  0  0  0
 16 18  1  0  0  0  0
 17 19  1  0  0  0  0
 18 20  1  0  0  0  0
 19 21  1  0  0  0  0
 21 22  1  0  0  0  0
 21 23  2  0  0  0  0
 22 24  2  0  0  0  0
 23 25  1  0  0  0  0
 25 26  1  0  0  0  0
 26 27  1  0  0  0  0
 27 28  2  0  0  0  0
 27 29  1  0  0  0  0
 29 30  1  0  0  0  0
 30 31  2  0  0  0  0
 30 32  1  0  0  0  0
 31 33  1  0  0  0  0
 32 34  2  0  0  0  0
 33 35  1  0  0  0  0
 33 36  2  0  0  0  0
 35 37  1  0  0  0  0
 36 38  1  0  0  0  0
 38 39  1  0  0  0  0
  7  9  1  0  0  0  0
 12 15  1  0  0  0  0
 14 16  1  0  0  0  0
 24 25  1  0  0  0  0
 34 36  1  0  0  0  0
M  END
>  <S/N>
401

>  <Compound ID>
C_418

>  <PubChem CID>
155518413

>  <Isomeric SMILES>
COC1=CC2=C(C=C1)C(=O)C3=C(C=C(C=C3O2)OCC4=CN(N=N4)CC(=O)NC5=CC(=C(C=C5)OC)OC)O

>  <IC50 (�M)>
15.9

>  <pIC50>
4.8

$$$$
C_419
Actelion Java MolfileCreator 1.0

 26 29  0  0  0  0  0  0  0  0999 V2000
    5.3077    4.8566   -0.0000 Br  0  0  0  0  0  0  0  0  0  0  0  0
    4.9010    3.9431   -0.0000 C   0  0  0  0  0  0  0  0  0  0  0  0
    3.9064    3.8385   -0.0000 C   0  0  0  0  0  0  0  0  0  0  0  0
    5.4887    3.1341   -0.0000 C   0  0  0  0  0  0  0  0  0  0  0  0
    3.4997    2.9250   -0.0000 C   0  0  0  0  0  0  0  0  0  0  0  0
    5.0820    2.2205   -0.0000 C   0  0  0  0  0  0  0  0  0  0  0  0
    4.0875    2.1160   -0.0000 C   0  0  0  0  0  0  0  0  0  0  0  0
    3.6808    1.2024   -0.0000 C   0  0  0  0  0  0  0  0  0  0  0  0
    2.7026    0.9945   -0.0000 N   0  0  0  0  0  0  0  0  0  0  0  0
    4.1808    0.3364   -0.0000 C   0  0  0  0  0  0  0  0  0  0  0  0
    2.5981   -0.0000   -0.0000 C   0  0  0  0  0  0  0  0  0  0  0  0
    3.5116   -0.4067   -0.0000 S   0  0  0  0  0  0  0  0  0  0  0  0
    1.7321   -0.5000   -0.0000 N   0  0  0  0  0  0  0  0  0  0  0  0
    0.8660   -0.0000   -0.0000 N   0  0  0  0  0  0  0  0  0  0  0  0
    0.0000   -0.5000   -0.0000 C   0  0  0  0  0  0  0  0  0  0  0  0
   -0.9135   -0.0933   -0.0000 C   0  0  0  0  0  0  0  0  0  0  0  0
   -0.1045   -1.4945   -0.0000 C   0  0  0  0  0  0  0  0  0  0  0  0
   -1.1215    0.8849   -0.0000 O   0  0  0  0  0  0  0  0  0  0  0  0
   -1.5827   -0.8364   -0.0000 N   0  0  0  0  0  0  0  0  0  0  0  0
   -1.0827   -1.7024   -0.0000 C   0  0  0  0  0  0  0  0  0  0  0  0
    0.5646   -2.2377   -0.0000 C   0  0  0  0  0  0  0  0  0  0  0  0
   -1.3917   -2.6535   -0.0000 C   0  0  0  0  0  0  0  0  0  0  0  0
    0.2556   -3.1887   -0.0000 C   0  0  0  0  0  0  0  0  0  0  0  0
   -0.7226   -3.3966   -0.0000 C   0  0  0  0  0  0  0  0  0  0  0  0
   -2.3698   -2.8614   -0.0000 C   0  0  0  0  0  0  0  0  0  0  0  0
    0.9247   -3.9319   -0.0000 C   0  0  0  0  0  0  0  0  0  0  0  0
  1  2  1  0  0  0  0
  2  3  2  0  0  0  0
  2  4  1  0  0  0  0
  3  5  1  0  0  0  0
  4  6  2  0  0  0  0
  5  7  2  0  0  0  0
  7  8  1  0  0  0  0
  8  9  1  0  0  0  0
  8 10  2  0  0  0  0
  9 11  2  0  0  0  0
 10 12  1  0  0  0  0
 11 13  1  0  0  0  0
 13 14  2  3  0  0  0
 14 15  1  0  0  0  0
 15 16  2  0  0  0  0
 15 17  1  0  0  0  0
 16 18  1  0  0  0  0
 16 19  1  0  0  0  0
 17 20  2  0  0  0  0
 17 21  1  0  0  0  0
 20 22  1  0  0  0  0
 21 23  2  0  0  0  0
 22 24  2  0  0  0  0
 22 25  1  0  0  0  0
 23 26  1  0  0  0  0
  6  7  1  0  0  0  0
 11 12  1  0  0  0  0
 19 20  1  0  0  0  0
 23 24  1  0  0  0  0
M  END
>  <S/N>
402

>  <Compound ID>
C_419

>  <PubChem CID>
155518475

>  <Isomeric SMILES>
CC1=CC(=C2C(=C1)C(=C(N2)O)N=NC3=NC(=CS3)C4=CC=C(C=C4)Br)C

>  <IC50 (�M)>
5.3

>  <pIC50>
5.28

$$$$
C_420
Actelion Java MolfileCreator 1.0

 22 24  0  0  0  0  0  0  0  0999 V2000
    5.1962   -1.5000   -0.0000 O   0  0  0  0  0  0  0  0  0  0  0  0
    5.1962   -0.5000   -0.0000 C   0  0  0  0  0  0  0  0  0  0  0  0
    6.0622   -0.0000   -0.0000 O   0  0  0  0  0  0  0  0  0  0  0  0
    4.3301   -0.0000   -0.0000 C   0  0  0  0  0  0  0  0  0  0  0  0
    6.0622    1.0000   -0.0000 C   0  0  0  0  0  0  0  0  0  0  0  0
    3.4641   -0.5000   -0.0000 C   0  0  0  0  0  0  0  0  0  0  0  0
    4.3301    1.0000   -0.0000 C   0  0  0  0  0  0  0  0  0  0  0  0
    5.1962    1.5000   -0.0000 C   0  0  0  0  0  0  0  0  0  0  0  0
    6.9282    1.5000   -0.0000 C   0  0  0  0  0  0  0  0  0  0  0  0
    3.4641   -1.5000   -0.0000 O   0  0  0  0  0  0  0  0  0  0  0  0
    2.5981   -0.0000   -0.0000 N   0  0  0  0  0  0  0  0  0  0  0  0
    5.1962    2.5000   -0.0000 C   0  0  0  0  0  0  0  0  0  0  0  0
    6.9282    2.5000   -0.0000 C   0  0  0  0  0  0  0  0  0  0  0  0
    1.7321   -0.5000   -0.0000 N   0  0  0  0  0  0  0  0  0  0  0  0
    6.0622    3.0000   -0.0000 C   0  0  0  0  0  0  0  0  0  0  0  0
    0.8660   -0.0000   -0.0000 C   0  0  0  0  0  0  0  0  0  0  0  0
    0.0000   -0.5000   -0.0000 C   0  0  0  0  0  0  0  0  0  0  0  0
   -0.8660    0.0000   -0.0000 N   0  0  0  0  0  0  0  0  0  0  0  0
   -0.0000   -1.5000   -0.0000 C   0  0  0  0  0  0  0  0  0  0  0  0
   -1.7321   -0.5000   -0.0000 C   0  0  0  0  0  0  0  0  0  0  0  0
   -0.8660   -2.0000   -0.0000 C   0  0  0  0  0  0  0  0  0  0  0  0
   -1.7321   -1.5000   -0.0000 C   0  0  0  0  0  0  0  0  0  0  0  0
  1  2  2  0  0  0  0
  2  3  1  0  0  0  0
  2  4  1  0  0  0  0
  3  5  1  0  0  0  0
  4  6  1  0  0  0  0
  4  7  2  0  0  0  0
  5  8  2  0  0  0  0
  5  9  1  0  0  0  0
  6 10  2  0  0  0  0
  6 11  1  0  0  0  0
  8 12  1  0  0  0  0
  9 13  2  0  0  0  0
 11 14  1  0  0  0  0
 12 15  2  0  0  0  0
 14 16  2  0  0  0  0
 16 17  1  0  0  0  0
 17 18  2  0  0  0  0
 17 19  1  0  0  0  0
 18 20  1  0  0  0  0
 19 21  2  0  0  0  0
 20 22  2  0  0  0  0
  7  8  1  0  0  0  0
 13 15  1  0  0  0  0
 21 22  1  0  0  0  0
M  END
>  <S/N>
403

>  <Compound ID>
C_420

>  <PubChem CID>
155518958

>  <Isomeric SMILES>
C1=CC=C2C(=C1)C=C(C(=O)O2)C(=O)N/N=C/C3=CC=CC=N3

>  <IC50 (�M)>
1.1

>  <pIC50>
5.96

$$$$
C_421
Actelion Java MolfileCreator 1.0

 65 74  0  0  0  0  0  0  0  0999 V2000
   -0.0000   -3.5000   -0.0000 Br  0  0  0  0  0  0  0  0  0  0  0  0
    0.8660   -3.0000   -0.0000 C   0  0  0  0  0  0  0  0  0  0  0  0
    0.8660   -2.0000   -0.0000 C   0  0  0  0  0  0  0  0  0  0  0  0
    1.7321   -3.5000   -0.0000 C   0  0  0  0  0  0  0  0  0  0  0  0
    1.7321   -1.5000   -0.0000 C   0  0  0  0  0  0  0  0  0  0  0  0
    2.5981   -3.0000   -0.0000 C   0  0  0  0  0  0  0  0  0  0  0  0
    2.5981   -2.0000   -0.0000 C   0  0  0  0  0  0  0  0  0  0  0  0
    1.7321   -0.5000   -0.0000 C   0  0  0  0  0  0  0  0  0  0  0  0
    2.5981   -0.0000   -0.0000 N   0  0  0  0  0  0  0  0  0  0  0  0
    0.8660   -0.0000   -0.0000 N   0  0  0  0  0  0  0  0  0  0  0  0
    3.5116   -0.4067   -0.0000 N   0  0  0  0  0  0  0  0  0  0  0  0
    2.7026    0.9945   -0.0000 C   0  0  0  0  0  0  0  0  0  0  0  0
    0.0000   -0.5000   -0.0000 C   0  0  0  0  0  0  0  0  0  0  0  0
    4.1808    0.3364   -0.0000 C   0  0  0  0  0  0  0  0  0  0  0  0
    1.9595    1.6637   -0.0000 S   0  0  0  0  0  0  0  0  0  0  0  0
    3.6808    1.2024   -0.0000 O   0  0  0  0  0  0  0  0  0  0  0  0
   -0.8660    0.0000   -0.0000 C   0  0  0  0  0  0  0  0  0  0  0  0
   -0.0000   -1.5000   -0.0000 C   0  0  0  0  0  0  0  0  0  0  0  0
    5.1753    0.2319   -0.0000 C   0  0  0  0  0  0  0  0  0  0  0  0
   -1.7321   -0.5000   -0.0000 C   0  0  0  0  0  0  0  0  0  0  0  0
   -0.8660   -2.0000   -0.0000 C   0  0  0  0  0  0  0  0  0  0  0  0
    5.5820   -0.6817   -0.0000 C   0  0  0  0  0  0  0  0  0  0  0  0
    5.7631    1.0409   -0.0000 C   0  0  0  0  0  0  0  0  0  0  0  0
   -1.7321   -1.5000   -0.0000 C   0  0  0  0  0  0  0  0  0  0  0  0
    4.9942   -1.4907   -0.0000 O   0  0  0  0  0  0  0  0  0  0  0  0
    6.5765   -0.7862   -0.0000 O   0  0  0  0  0  0  0  0  0  0  0  0
    6.7576    0.9364   -0.0000 C   0  0  0  0  0  0  0  0  0  0  0  0
   -2.5981   -2.0000   -0.0000 O   0  0  0  0  0  0  0  0  0  0  0  0
    7.1643    0.0228   -0.0000 C   0  0  0  0  0  0  0  0  0  0  0  0
    7.3454    1.7454   -0.0000 C   0  0  0  0  0  0  0  0  0  0  0  0
   -2.5981   -3.0000   -0.0000 C   0  0  0  0  0  0  0  0  0  0  0  0
    8.1588   -0.0817   -0.0000 C   0  0  0  0  0  0  0  0  0  0  0  0
    8.3399    1.6409   -0.0000 C   0  0  0  0  0  0  0  0  0  0  0  0
   -3.4641   -3.5000   -0.0000 C   0  0  0  0  0  0  0  0  0  0  0  0
   -1.7321   -3.5000   -0.0000 C   0  0  0  0  0  0  0  0  0  0  0  0
    8.7466    0.7273   -0.0000 C   0  0  0  0  0  0  0  0  0  0  0  0
   -3.4641   -4.5000   -0.0000 C   0  0  0  0  0  0  0  0  0  0  0  0
   -1.7321   -4.5000   -0.0000 C   0  0  0  0  0  0  0  0  0  0  0  0
   -2.5981   -5.0000   -0.0000 C   0  0  0  0  0  0  0  0  0  0  0  0
   -2.5981   -6.0000   -0.0000 N   0  0  0  0  0  0  0  0  0  0  0  0
   -3.4641   -6.5000   -0.0000 C   0  0  0  0  0  0  0  0  0  0  0  0
   -4.3301   -6.0000   -0.0000 N   0  0  0  0  0  0  0  0  0  0  0  0
   -3.4641   -7.5000   -0.0000 C   0  0  0  0  0  0  0  0  0  0  0  0
   -4.4347   -5.0055   -0.0000 N   0  0  0  0  0  0  0  0  0  0  0  0
   -5.2437   -6.4067   -0.0000 C   0  0  0  0  0  0  0  0  0  0  0  0
   -4.3301   -8.0000   -0.0000 C   0  0  0  0  0  0  0  0  0  0  0  0
   -2.5981   -8.0000   -0.0000 C   0  0  0  0  0  0  0  0  0  0  0  0
   -5.4128   -4.7976   -0.0000 C   0  0  0  0  0  0  0  0  0  0  0  0
   -5.4516   -7.3849   -0.0000 S   0  0  0  0  0  0  0  0  0  0  0  0
   -5.9128   -5.6636   -0.0000 O   0  0  0  0  0  0  0  0  0  0  0  0
   -4.3301   -9.0000   -0.0000 C   0  0  0  0  0  0  0  0  0  0  0  0
   -2.5981   -9.0000   -0.0000 C   0  0  0  0  0  0  0  0  0  0  0  0
   -5.8195   -3.8840   -0.0000 C   0  0  0  0  0  0  0  0  0  0  0  0
   -5.1962   -9.5000   -0.0000 Br  0  0  0  0  0  0  0  0  0  0  0  0
   -3.4641   -9.5000   -0.0000 C   0  0  0  0  0  0  0  0  0  0  0  0
   -5.2318   -3.0750   -0.0000 C   0  0  0  0  0  0  0  0  0  0  0  0
   -6.8141   -3.7795   -0.0000 C   0  0  0  0  0  0  0  0  0  0  0  0
   -4.2372   -3.1795   -0.0000 O   0  0  0  0  0  0  0  0  0  0  0  0
   -5.6385   -2.1615   -0.0000 O   0  0  0  0  0  0  0  0  0  0  0  0
   -7.2208   -2.8659   -0.0000 C   0  0  0  0  0  0  0  0  0  0  0  0
   -6.6330   -2.0569   -0.0000 C   0  0  0  0  0  0  0  0  0  0  0  0
   -8.2153   -2.7614   -0.0000 C   0  0  0  0  0  0  0  0  0  0  0  0
   -7.0397   -1.1434   -0.0000 C   0  0  0  0  0  0  0  0  0  0  0  0
   -8.6221   -1.8479   -0.0000 C   0  0  0  0  0  0  0  0  0  0  0  0
   -8.0343   -1.0389   -0.0000 C   0  0  0  0  0  0  0  0  0  0  0  0
  1  2  1  0  0  0  0
  2  3  2  0  0  0  0
  2  4  1  0  0  0  0
  3  5  1  0  0  0  0
  4  6  2  0  0  0  0
  5  7  2  0  0  0  0
  5  8  1  0  0  0  0
  8  9  1  0  0  0  0
  8 10  1  0  0  0  0
  9 11  1  0  0  0  0
  9 12  1  0  0  0  0
 10 13  1  0  0  0  0
 11 14  2  0  0  0  0
 12 15  2  0  0  0  0
 12 16  1  0  0  0  0
 13 17  2  0  0  0  0
 13 18  1  0  0  0  0
 14 19  1  0  0  0  0
 17 20  1  0  0  0  0
 18 21  2  0  0  0  0
 19 22  1  0  0  0  0
 19 23  2  0  0  0  0
 20 24  2  0  0  0  0
 22 25  2  0  0  0  0
 22 26  1  0  0  0  0
 23 27  1  0  0  0  0
 24 28  1  0  0  0  0
 26 29  1  0  0  0  0
 27 30  2  0  0  0  0
 28 31  1  0  0  0  0
 29 32  2  0  0  0  0
 30 33  1  0  0  0  0
 31 34  2  0  0  0  0
 31 35  1  0  0  0  0
 32 36  1  0  0  0  0
 34 37  1  0  0  0  0
 35 38  2  0  0  0  0
 37 39  2  0  0  0  0
 39 40  1  0  0  0  0
 40 41  1  0  0  0  0
 41 42  1  0  0  0  0
 41 43  1  0  0  0  0
 42 44  1  0  0  0  0
 42 45  1  0  0  0  0
 43 46  2  0  0  0  0
 43 47  1  0  0  0  0
 44 48  2  0  0  0  0
 45 49  2  0  0  0  0
 45 50  1  0  0  0  0
 46 51  1  0  0  0  0
 47 52  2  0  0  0  0
 48 53  1  0  0  0  0
 51 54  1  0  0  0  0
 51 55  2  0  0  0  0
 53 56  1  0  0  0  0
 53 57  2  0  0  0  0
 56 58  2  0  0  0  0
 56 59  1  0  0  0  0
 57 60  1  0  0  0  0
 59 61  1  0  0  0  0
 60 62  2  0  0  0  0
 61 63  2  0  0  0  0
 62 64  1  0  0  0  0
 63 65  1  0  0  0  0
  6  7  1  0  0  0  0
 14 16  1  0  0  0  0
 21 24  1  0  0  0  0
 27 29  1  0  0  0  0
 33 36  2  0  0  0  0
 38 39  1  0  0  0  0
 48 50  1  0  0  0  0
 52 55  1  0  0  0  0
 60 61  1  0  0  0  0
 64 65  2  0  0  0  0
M  END
>  <S/N>
404

>  <Compound ID>
C_421

>  <PubChem CID>
155519329

>  <Isomeric SMILES>
C1=CC=C2C(=C1)C=C(C(=O)O2)C3=NN(C(=S)O3)C(C4=CC(=CC=C4)Br)NC5=CC=C(C=C5)OC6=CC=C(C=C6)NC(C7=CC(=CC=C7)Br)N8C(=S)OC(=N8)C9=CC1=CC=CC=C1OC9=O

>  <IC50 (�M)>
0.07

>  <pIC50>
7.15

$$$$
C_422
Actelion Java MolfileCreator 1.0

 41 48  0  0  0  0  0  0  0  0999 V2000
    0.8073   -3.9319   -0.0000 Cl  0  0  0  0  0  0  0  0  0  0  0  0
    1.4765   -3.1887   -0.0000 C   0  0  0  0  0  0  0  0  0  0  0  0
    1.1674   -2.2377   -0.0000 C   0  0  0  0  0  0  0  0  0  0  0  0
    2.4546   -3.3966   -0.0000 C   0  0  0  0  0  0  0  0  0  0  0  0
    1.8366   -1.4945   -0.0000 C   0  0  0  0  0  0  0  0  0  0  0  0
    3.1237   -2.6535   -0.0000 C   0  0  0  0  0  0  0  0  0  0  0  0
    2.8147   -1.7024   -0.0000 C   0  0  0  0  0  0  0  0  0  0  0  0
    1.7321   -0.5000   -0.0000 C   0  0  0  0  0  0  0  0  0  0  0  0
    3.3147   -0.8364   -0.0000 N   0  0  0  0  0  0  0  0  0  0  0  0
    2.6456   -0.0933   -0.0000 C   0  0  0  0  0  0  0  0  0  0  0  0
    0.8660   -0.0000   -0.0000 C   0  0  0  0  0  0  0  0  0  0  0  0
    0.8660    1.0000   -0.0000 C   0  0  0  0  0  0  0  0  0  0  0  0
    0.0000   -0.5000   -0.0000 C   0  0  0  0  0  0  0  0  0  0  0  0
    1.7321    1.5000   -0.0000 C   0  0  0  0  0  0  0  0  0  0  0  0
    0.0000    1.5000   -0.0000 C   0  0  0  0  0  0  0  0  0  0  0  0
   -0.9135   -0.0933   -0.0000 C   0  0  0  0  0  0  0  0  0  0  0  0
   -0.1045   -1.4945   -0.0000 C   0  0  0  0  0  0  0  0  0  0  0  0
    1.7321    2.5000   -0.0000 C   0  0  0  0  0  0  0  0  0  0  0  0
    0.0000    2.5000   -0.0000 C   0  0  0  0  0  0  0  0  0  0  0  0
   -1.5827   -0.8364   -0.0000 C   0  0  0  0  0  0  0  0  0  0  0  0
   -1.2226    0.8578   -0.0000 C   0  0  0  0  0  0  0  0  0  0  0  0
   -1.0827   -1.7024   -0.0000 N   0  0  0  0  0  0  0  0  0  0  0  0
    0.8660    3.0000   -0.0000 C   0  0  0  0  0  0  0  0  0  0  0  0
   -2.5608   -0.6285   -0.0000 C   0  0  0  0  0  0  0  0  0  0  0  0
   -2.2007    1.0657   -0.0000 C   0  0  0  0  0  0  0  0  0  0  0  0
    0.8660    4.0000   -0.0000 C   0  0  0  0  0  0  0  0  0  0  0  0
   -2.8698    0.3226   -0.0000 C   0  0  0  0  0  0  0  0  0  0  0  0
   -2.5097    2.0168   -0.0000 Cl  0  0  0  0  0  0  0  0  0  0  0  0
    1.6750    4.5878   -0.0000 O   0  0  0  0  0  0  0  0  0  0  0  0
    0.0570    4.5878   -0.0000 N   0  0  0  0  0  0  0  0  0  0  0  0
    1.3660    5.5388   -0.0000 C   0  0  0  0  0  0  0  0  0  0  0  0
    0.3660    5.5388   -0.0000 N   0  0  0  0  0  0  0  0  0  0  0  0
    1.9538    6.3479   -0.0000 C   0  0  0  0  0  0  0  0  0  0  0  0
    2.9538    6.3479   -0.0000 C   0  0  0  0  0  0  0  0  0  0  0  0
    1.6448    7.2989   -0.0000 C   0  0  0  0  0  0  0  0  0  0  0  0
    3.2628    7.2989   -0.0000 C   0  0  0  0  0  0  0  0  0  0  0  0
    3.6229    5.6047   -0.0000 C   0  0  0  0  0  0  0  0  0  0  0  0
    2.4538    7.8867   -0.0000 N   0  0  0  0  0  0  0  0  0  0  0  0
    4.2410    7.5068   -0.0000 C   0  0  0  0  0  0  0  0  0  0  0  0
    4.6011    5.8126   -0.0000 C   0  0  0  0  0  0  0  0  0  0  0  0
    4.9101    6.7637   -0.0000 C   0  0  0  0  0  0  0  0  0  0  0  0
  1  2  1  0  0  0  0
  2  3  2  0  0  0  0
  2  4  1  0  0  0  0
  3  5  1  0  0  0  0
  4  6  2  0  0  0  0
  5  7  2  0  0  0  0
  5  8  1  0  0  0  0
  7  9  1  0  0  0  0
  8 10  2  0  0  0  0
  8 11  1  0  0  0  0
 11 12  1  0  0  0  0
 11 13  1  0  0  0  0
 12 14  2  0  0  0  0
 12 15  1  0  0  0  0
 13 16  1  0  0  0  0
 13 17  2  0  0  0  0
 14 18  1  0  0  0  0
 15 19  2  0  0  0  0
 16 20  2  0  0  0  0
 16 21  1  0  0  0  0
 17 22  1  0  0  0  0
 18 23  2  0  0  0  0
 20 24  1  0  0  0  0
 21 25  2  0  0  0  0
 23 26  1  0  0  0  0
 24 27  2  0  0  0  0
 25 28  1  0  0  0  0
 26 29  1  0  0  0  0
 26 30  2  0  0  0  0
 29 31  1  0  0  0  0
 30 32  1  0  0  0  0
 31 33  1  0  0  0  0
 33 34  1  0  0  0  0
 33 35  2  0  0  0  0
 34 36  2  0  0  0  0
 34 37  1  0  0  0  0
 35 38  1  0  0  0  0
 36 39  1  0  0  0  0
 37 40  2  0  0  0  0
 39 41  2  0  0  0  0
  6  7  1  0  0  0  0
  9 10  1  0  0  0  0
 19 23  1  0  0  0  0
 20 22  1  0  0  0  0
 25 27  1  0  0  0  0
 31 32  2  0  0  0  0
 36 38  1  0  0  0  0
 40 41  1  0  0  0  0
M  END
>  <S/N>
405

>  <Compound ID>
C_422

>  <PubChem CID>
155519624

>  <Isomeric SMILES>
C1=CC=C2C(=C1)C(=CN2)C3=NN=C(O3)C4=CC=C(C=C4)C(C5=CNC6=C5C=C(C=C6)Cl)C7=CNC8=C7C=C(C=C8)Cl

>  <IC50 (�M)>
20

>  <pIC50>
4.7

$$$$
C_423
Actelion Java MolfileCreator 1.0

 66 75  0  0  0  0  0  0  0  0999 V2000
    1.7321    1.5000   -0.0000 Cl  0  0  0  0  0  0  0  0  0  0  0  0
    2.5981    1.0000   -0.0000 C   0  0  0  0  0  0  0  0  0  0  0  0
    2.5981   -0.0000   -0.0000 C   0  0  0  0  0  0  0  0  0  0  0  0
    3.4641    1.5000   -0.0000 C   0  0  0  0  0  0  0  0  0  0  0  0
    3.4641   -0.5000   -0.0000 C   0  0  0  0  0  0  0  0  0  0  0  0
    1.7321   -0.5000   -0.0000 C   0  0  0  0  0  0  0  0  0  0  0  0
    4.3301    1.0000   -0.0000 C   0  0  0  0  0  0  0  0  0  0  0  0
    4.3301   -0.0000   -0.0000 C   0  0  0  0  0  0  0  0  0  0  0  0
    1.7321   -1.5000   -0.0000 N   0  0  0  0  0  0  0  0  0  0  0  0
    0.8660   -0.0000   -0.0000 N   0  0  0  0  0  0  0  0  0  0  0  0
    5.1962    1.5000   -0.0000 Cl  0  0  0  0  0  0  0  0  0  0  0  0
    0.9230   -2.0878   -0.0000 N   0  0  0  0  0  0  0  0  0  0  0  0
    2.5411   -2.0878   -0.0000 C   0  0  0  0  0  0  0  0  0  0  0  0
    0.0000   -0.5000   -0.0000 C   0  0  0  0  0  0  0  0  0  0  0  0
    1.2321   -3.0388   -0.0000 C   0  0  0  0  0  0  0  0  0  0  0  0
    3.4921   -1.7788   -0.0000 S   0  0  0  0  0  0  0  0  0  0  0  0
    2.2321   -3.0388   -0.0000 O   0  0  0  0  0  0  0  0  0  0  0  0
   -0.8660    0.0000   -0.0000 C   0  0  0  0  0  0  0  0  0  0  0  0
   -0.0000   -1.5000   -0.0000 C   0  0  0  0  0  0  0  0  0  0  0  0
    0.6443   -3.8479   -0.0000 C   0  0  0  0  0  0  0  0  0  0  0  0
   -1.7321   -0.5000   -0.0000 C   0  0  0  0  0  0  0  0  0  0  0  0
   -0.8660   -2.0000   -0.0000 C   0  0  0  0  0  0  0  0  0  0  0  0
   -0.3503   -3.7433   -0.0000 C   0  0  0  0  0  0  0  0  0  0  0  0
    1.0510   -4.7614   -0.0000 C   0  0  0  0  0  0  0  0  0  0  0  0
   -1.7321   -1.5000   -0.0000 C   0  0  0  0  0  0  0  0  0  0  0  0
   -0.7570   -2.8298   -0.0000 O   0  0  0  0  0  0  0  0  0  0  0  0
   -0.9380   -4.5523   -0.0000 O   0  0  0  0  0  0  0  0  0  0  0  0
    0.4632   -5.5704   -0.0000 C   0  0  0  0  0  0  0  0  0  0  0  0
   -2.5981   -2.0000   -0.0000 C   0  0  0  0  0  0  0  0  0  0  0  0
   -0.5313   -5.4659   -0.0000 C   0  0  0  0  0  0  0  0  0  0  0  0
    0.8700   -6.4840   -0.0000 C   0  0  0  0  0  0  0  0  0  0  0  0
   -3.4641   -1.5000   -0.0000 C   0  0  0  0  0  0  0  0  0  0  0  0
   -2.5981   -3.0000   -0.0000 C   0  0  0  0  0  0  0  0  0  0  0  0
   -1.1191   -6.2749   -0.0000 C   0  0  0  0  0  0  0  0  0  0  0  0
    0.2822   -7.2930   -0.0000 C   0  0  0  0  0  0  0  0  0  0  0  0
   -4.3301   -2.0000   -0.0000 C   0  0  0  0  0  0  0  0  0  0  0  0
   -3.4641   -3.5000   -0.0000 C   0  0  0  0  0  0  0  0  0  0  0  0
   -0.7124   -7.1885   -0.0000 C   0  0  0  0  0  0  0  0  0  0  0  0
   -4.3301   -3.0000   -0.0000 C   0  0  0  0  0  0  0  0  0  0  0  0
   -5.1962   -3.5000   -0.0000 N   0  0  0  0  0  0  0  0  0  0  0  0
   -6.0622   -3.0000   -0.0000 C   0  0  0  0  0  0  0  0  0  0  0  0
   -6.9282   -3.5000   -0.0000 N   0  0  0  0  0  0  0  0  0  0  0  0
   -6.0622   -2.0000   -0.0000 C   0  0  0  0  0  0  0  0  0  0  0  0
   -7.8417   -3.0933   -0.0000 N   0  0  0  0  0  0  0  0  0  0  0  0
   -7.0327   -4.4945   -0.0000 C   0  0  0  0  0  0  0  0  0  0  0  0
   -6.9282   -1.5000   -0.0000 C   0  0  0  0  0  0  0  0  0  0  0  0
   -5.1962   -1.5000   -0.0000 C   0  0  0  0  0  0  0  0  0  0  0  0
   -8.5109   -3.8364   -0.0000 C   0  0  0  0  0  0  0  0  0  0  0  0
   -6.2896   -5.1637   -0.0000 S   0  0  0  0  0  0  0  0  0  0  0  0
   -8.0109   -4.7024   -0.0000 O   0  0  0  0  0  0  0  0  0  0  0  0
   -7.7942   -2.0000   -0.0000 Cl  0  0  0  0  0  0  0  0  0  0  0  0
   -6.9282   -0.5000   -0.0000 C   0  0  0  0  0  0  0  0  0  0  0  0
   -5.1962   -0.5000   -0.0000 C   0  0  0  0  0  0  0  0  0  0  0  0
   -9.5054   -3.7319   -0.0000 C   0  0  0  0  0  0  0  0  0  0  0  0
   -6.0622    0.0000   -0.0000 C   0  0  0  0  0  0  0  0  0  0  0  0
   -9.9121   -2.8183   -0.0000 C   0  0  0  0  0  0  0  0  0  0  0  0
  -10.0932   -4.5409   -0.0000 C   0  0  0  0  0  0  0  0  0  0  0  0
   -6.0622    1.0000   -0.0000 Cl  0  0  0  0  0  0  0  0  0  0  0  0
  -10.9067   -2.7138   -0.0000 C   0  0  0  0  0  0  0  0  0  0  0  0
   -9.3244   -2.0093   -0.0000 C   0  0  0  0  0  0  0  0  0  0  0  0
  -11.0877   -4.4364   -0.0000 C   0  0  0  0  0  0  0  0  0  0  0  0
  -11.4944   -3.5228   -0.0000 O   0  0  0  0  0  0  0  0  0  0  0  0
  -11.3134   -1.8003   -0.0000 C   0  0  0  0  0  0  0  0  0  0  0  0
   -9.7311   -1.0958   -0.0000 C   0  0  0  0  0  0  0  0  0  0  0  0
  -11.6755   -5.2454   -0.0000 O   0  0  0  0  0  0  0  0  0  0  0  0
  -10.7256   -0.9912   -0.0000 C   0  0  0  0  0  0  0  0  0  0  0  0
  1  2  1  0  0  0  0
  2  3  2  0  0  0  0
  2  4  1  0  0  0  0
  3  5  1  0  0  0  0
  3  6  1  0  0  0  0
  4  7  2  0  0  0  0
  5  8  2  0  0  0  0
  6  9  1  0  0  0  0
  6 10  1  0  0  0  0
  7 11  1  0  0  0  0
  9 12  1  0  0  0  0
  9 13  1  0  0  0  0
 10 14  1  0  0  0  0
 12 15  2  0  0  0  0
 13 16  2  0  0  0  0
 13 17  1  0  0  0  0
 14 18  2  0  0  0  0
 14 19  1  0  0  0  0
 15 20  1  0  0  0  0
 18 21  1  0  0  0  0
 19 22  2  0  0  0  0
 20 23  1  0  0  0  0
 20 24  2  0  0  0  0
 21 25  2  0  0  0  0
 23 26  2  0  0  0  0
 23 27  1  0  0  0  0
 24 28  1  0  0  0  0
 25 29  1  0  0  0  0
 27 30  1  0  0  0  0
 28 31  2  0  0  0  0
 29 32  2  0  0  0  0
 29 33  1  0  0  0  0
 30 34  2  0  0  0  0
 31 35  1  0  0  0  0
 32 36  1  0  0  0  0
 33 37  2  0  0  0  0
 34 38  1  0  0  0  0
 36 39  2  0  0  0  0
 39 40  1  0  0  0  0
 40 41  1  0  0  0  0
 41 42  1  0  0  0  0
 41 43  1  0  0  0  0
 42 44  1  0  0  0  0
 42 45  1  0  0  0  0
 43 46  2  0  0  0  0
 43 47  1  0  0  0  0
 44 48  2  0  0  0  0
 45 49  2  0  0  0  0
 45 50  1  0  0  0  0
 46 51  1  0  0  0  0
 46 52  1  0  0  0  0
 47 53  2  0  0  0  0
 48 54  1  0  0  0  0
 52 55  2  0  0  0  0
 54 56  1  0  0  0  0
 54 57  2  0  0  0  0
 55 58  1  0  0  0  0
 56 59  2  0  0  0  0
 56 60  1  0  0  0  0
 57 61  1  0  0  0  0
 59 62  1  0  0  0  0
 59 63  1  0  0  0  0
 60 64  2  0  0  0  0
 61 65  2  0  0  0  0
 63 66  2  0  0  0  0
  7  8  1  0  0  0  0
 15 17  1  0  0  0  0
 22 25  1  0  0  0  0
 28 30  1  0  0  0  0
 35 38  2  0  0  0  0
 37 39  1  0  0  0  0
 48 50  1  0  0  0  0
 53 55  1  0  0  0  0
 61 62  1  0  0  0  0
 64 66  1  0  0  0  0
M  END
>  <S/N>
406

>  <Compound ID>
C_423

>  <PubChem CID>
155519901

>  <Isomeric SMILES>
C1=CC=C2C(=C1)C=C(C(=O)O2)C3=NN(C(=S)O3)C(C4=C(C=C(C=C4)Cl)Cl)NC5=CC=C(C=C5)C6=CC=C(C=C6)NC(C7=C(C=C(C=C7)Cl)Cl)N8C(=S)OC(=N8)C9=CC(=O)OC1=CC=CC=C19

>  <IC50 (�M)>
0.07

>  <pIC50>
7.15

$$$$
C_424
Actelion Java MolfileCreator 1.0

 64 73  0  0  0  0  0  0  0  0999 V2000
    3.7195   -1.3849   -0.0000 S   0  0  0  0  0  0  0  0  0  0  0  0
    3.5116   -0.4067   -0.0000 C   0  0  0  0  0  0  0  0  0  0  0  0
    4.1808    0.3364   -0.0000 O   0  0  0  0  0  0  0  0  0  0  0  0
    2.5981   -0.0000   -0.0000 N   0  0  0  0  0  0  0  0  0  0  0  0
    3.6808    1.2024   -0.0000 C   0  0  0  0  0  0  0  0  0  0  0  0
    2.7026    0.9945   -0.0000 N   0  0  0  0  0  0  0  0  0  0  0  0
    1.7321   -0.5000   -0.0000 C   0  0  0  0  0  0  0  0  0  0  0  0
    4.0875    2.1160   -0.0000 C   0  0  0  0  0  0  0  0  0  0  0  0
    0.8660   -0.0000   -0.0000 N   0  0  0  0  0  0  0  0  0  0  0  0
    1.7321   -1.5000   -0.0000 C   0  0  0  0  0  0  0  0  0  0  0  0
    5.0820    2.2205   -0.0000 C   0  0  0  0  0  0  0  0  0  0  0  0
    3.4997    2.9250   -0.0000 C   0  0  0  0  0  0  0  0  0  0  0  0
    0.0000   -0.5000   -0.0000 C   0  0  0  0  0  0  0  0  0  0  0  0
    0.8660   -2.0000   -0.0000 C   0  0  0  0  0  0  0  0  0  0  0  0
    2.5981   -2.0000   -0.0000 C   0  0  0  0  0  0  0  0  0  0  0  0
    5.6698    1.4115   -0.0000 O   0  0  0  0  0  0  0  0  0  0  0  0
    5.4887    3.1341   -0.0000 O   0  0  0  0  0  0  0  0  0  0  0  0
    3.9064    3.8385   -0.0000 C   0  0  0  0  0  0  0  0  0  0  0  0
   -0.8660    0.0000   -0.0000 C   0  0  0  0  0  0  0  0  0  0  0  0
   -0.0000   -1.5000   -0.0000 C   0  0  0  0  0  0  0  0  0  0  0  0
    0.8660   -3.0000   -0.0000 C   0  0  0  0  0  0  0  0  0  0  0  0
    2.5981   -3.0000   -0.0000 C   0  0  0  0  0  0  0  0  0  0  0  0
    4.9010    3.9431   -0.0000 C   0  0  0  0  0  0  0  0  0  0  0  0
    3.3187    4.6476   -0.0000 C   0  0  0  0  0  0  0  0  0  0  0  0
   -1.7321   -0.5000   -0.0000 C   0  0  0  0  0  0  0  0  0  0  0  0
   -0.8660   -2.0000   -0.0000 C   0  0  0  0  0  0  0  0  0  0  0  0
    1.7321   -3.5000   -0.0000 C   0  0  0  0  0  0  0  0  0  0  0  0
    5.3077    4.8566   -0.0000 C   0  0  0  0  0  0  0  0  0  0  0  0
    3.7254    5.5611   -0.0000 C   0  0  0  0  0  0  0  0  0  0  0  0
   -1.7321   -1.5000   -0.0000 C   0  0  0  0  0  0  0  0  0  0  0  0
    1.7321   -4.5000   -0.0000 C   0  0  0  0  0  0  0  0  0  0  0  0
    4.7199    5.6656   -0.0000 C   0  0  0  0  0  0  0  0  0  0  0  0
   -2.5981   -2.0000   -0.0000 C   0  0  0  0  0  0  0  0  0  0  0  0
   -3.4641   -1.5000   -0.0000 C   0  0  0  0  0  0  0  0  0  0  0  0
   -2.5981   -3.0000   -0.0000 C   0  0  0  0  0  0  0  0  0  0  0  0
   -4.3301   -2.0000   -0.0000 C   0  0  0  0  0  0  0  0  0  0  0  0
   -3.4641   -3.5000   -0.0000 C   0  0  0  0  0  0  0  0  0  0  0  0
   -4.3301   -3.0000   -0.0000 C   0  0  0  0  0  0  0  0  0  0  0  0
   -5.1962   -3.5000   -0.0000 N   0  0  0  0  0  0  0  0  0  0  0  0
   -6.0622   -3.0000   -0.0000 C   0  0  0  0  0  0  0  0  0  0  0  0
   -6.9282   -3.5000   -0.0000 N   0  0  0  0  0  0  0  0  0  0  0  0
   -6.0622   -2.0000   -0.0000 C   0  0  0  0  0  0  0  0  0  0  0  0
   -7.8417   -3.0933   -0.0000 N   0  0  0  0  0  0  0  0  0  0  0  0
   -7.0327   -4.4945   -0.0000 C   0  0  0  0  0  0  0  0  0  0  0  0
   -6.9282   -1.5000   -0.0000 C   0  0  0  0  0  0  0  0  0  0  0  0
   -5.1962   -1.5000   -0.0000 C   0  0  0  0  0  0  0  0  0  0  0  0
   -8.5109   -3.8364   -0.0000 C   0  0  0  0  0  0  0  0  0  0  0  0
   -6.2896   -5.1637   -0.0000 S   0  0  0  0  0  0  0  0  0  0  0  0
   -8.0109   -4.7024   -0.0000 O   0  0  0  0  0  0  0  0  0  0  0  0
   -6.9282   -0.5000   -0.0000 C   0  0  0  0  0  0  0  0  0  0  0  0
   -5.1962   -0.5000   -0.0000 C   0  0  0  0  0  0  0  0  0  0  0  0
   -9.5054   -3.7319   -0.0000 C   0  0  0  0  0  0  0  0  0  0  0  0
   -6.0622    0.0000   -0.0000 C   0  0  0  0  0  0  0  0  0  0  0  0
   -9.9121   -2.8183   -0.0000 C   0  0  0  0  0  0  0  0  0  0  0  0
  -10.0932   -4.5409   -0.0000 C   0  0  0  0  0  0  0  0  0  0  0  0
   -6.0622    1.0000   -0.0000 C   0  0  0  0  0  0  0  0  0  0  0  0
  -10.9067   -2.7138   -0.0000 C   0  0  0  0  0  0  0  0  0  0  0  0
   -9.3244   -2.0093   -0.0000 C   0  0  0  0  0  0  0  0  0  0  0  0
  -11.0877   -4.4364   -0.0000 C   0  0  0  0  0  0  0  0  0  0  0  0
  -11.4944   -3.5228   -0.0000 O   0  0  0  0  0  0  0  0  0  0  0  0
  -11.3134   -1.8003   -0.0000 C   0  0  0  0  0  0  0  0  0  0  0  0
   -9.7311   -1.0958   -0.0000 C   0  0  0  0  0  0  0  0  0  0  0  0
  -11.6755   -5.2454   -0.0000 O   0  0  0  0  0  0  0  0  0  0  0  0
  -10.7256   -0.9912   -0.0000 C   0  0  0  0  0  0  0  0  0  0  0  0
  1  2  2  0  0  0  0
  2  3  1  0  0  0  0
  2  4  1  0  0  0  0
  3  5  1  0  0  0  0
  4  6  1  0  0  0  0
  4  7  1  0  0  0  0
  5  8  1  0  0  0  0
  7  9  1  0  0  0  0
  7 10  1  0  0  0  0
  8 11  1  0  0  0  0
  8 12  2  0  0  0  0
  9 13  1  0  0  0  0
 10 14  2  0  0  0  0
 10 15  1  0  0  0  0
 11 16  2  0  0  0  0
 11 17  1  0  0  0  0
 12 18  1  0  0  0  0
 13 19  2  0  0  0  0
 13 20  1  0  0  0  0
 14 21  1  0  0  0  0
 15 22  2  0  0  0  0
 17 23  1  0  0  0  0
 18 24  1  0  0  0  0
 19 25  1  0  0  0  0
 20 26  2  0  0  0  0
 21 27  2  0  0  0  0
 23 28  1  0  0  0  0
 24 29  2  0  0  0  0
 25 30  2  0  0  0  0
 27 31  1  0  0  0  0
 28 32  2  0  0  0  0
 30 33  1  0  0  0  0
 33 34  2  0  0  0  0
 33 35  1  0  0  0  0
 34 36  1  0  0  0  0
 35 37  2  0  0  0  0
 36 38  2  0  0  0  0
 38 39  1  0  0  0  0
 39 40  1  0  0  0  0
 40 41  1  0  0  0  0
 40 42  1  0  0  0  0
 41 43  1  0  0  0  0
 41 44  1  0  0  0  0
 42 45  2  0  0  0  0
 42 46  1  0  0  0  0
 43 47  2  0  0  0  0
 44 48  2  0  0  0  0
 44 49  1  0  0  0  0
 45 50  1  0  0  0  0
 46 51  2  0  0  0  0
 47 52  1  0  0  0  0
 50 53  2  0  0  0  0
 52 54  1  0  0  0  0
 52 55  2  0  0  0  0
 53 56  1  0  0  0  0
 54 57  2  0  0  0  0
 54 58  1  0  0  0  0
 55 59  1  0  0  0  0
 57 60  1  0  0  0  0
 57 61  1  0  0  0  0
 58 62  2  0  0  0  0
 59 63  2  0  0  0  0
 61 64  2  0  0  0  0
  5  6  2  0  0  0  0
 18 23  2  0  0  0  0
 22 27  1  0  0  0  0
 26 30  1  0  0  0  0
 29 32  1  0  0  0  0
 37 38  1  0  0  0  0
 47 49  1  0  0  0  0
 51 53  1  0  0  0  0
 59 60  1  0  0  0  0
 62 64  1  0  0  0  0
M  END
>  <S/N>
407

>  <Compound ID>
C_424

>  <PubChem CID>
155519963

>  <Isomeric SMILES>
CC1=CC=C(C=C1)C(NC2=CC=C(C=C2)C3=CC=C(C=C3)NC(C4=CC=C(C=C4)C)N5C(=S)OC(=N5)C6=CC(=O)OC7=CC=CC=C76)N8C(=S)OC(=N8)C9=CC1=CC=CC=C1OC9=O

>  <IC50 (�M)>
0.07

>  <pIC50>
7.15

$$$$
C_425
Actelion Java MolfileCreator 1.0

 58 66  0  0  0  0  0  0  0  0999 V2000
    5.1962    1.5000   -0.0000 Cl  0  0  0  0  0  0  0  0  0  0  0  0
    4.3301    1.0000   -0.0000 C   0  0  0  0  0  0  0  0  0  0  0  0
    3.4641    1.5000   -0.0000 C   0  0  0  0  0  0  0  0  0  0  0  0
    4.3301    0.0000   -0.0000 C   0  0  0  0  0  0  0  0  0  0  0  0
    2.5981    1.0000   -0.0000 C   0  0  0  0  0  0  0  0  0  0  0  0
    3.4641   -0.5000   -0.0000 C   0  0  0  0  0  0  0  0  0  0  0  0
    2.5981   -0.0000   -0.0000 C   0  0  0  0  0  0  0  0  0  0  0  0
    1.7321   -0.5000   -0.0000 C   0  0  0  0  0  0  0  0  0  0  0  0
    1.7321   -1.5000   -0.0000 N   0  0  0  0  0  0  0  0  0  0  0  0
    0.8660   -0.0000   -0.0000 N   0  0  0  0  0  0  0  0  0  0  0  0
    0.9230   -2.0878   -0.0000 N   0  0  0  0  0  0  0  0  0  0  0  0
    2.5411   -2.0878   -0.0000 C   0  0  0  0  0  0  0  0  0  0  0  0
    0.0000   -0.5000   -0.0000 C   0  0  0  0  0  0  0  0  0  0  0  0
    1.2321   -3.0388   -0.0000 C   0  0  0  0  0  0  0  0  0  0  0  0
    3.4921   -1.7788   -0.0000 S   0  0  0  0  0  0  0  0  0  0  0  0
    2.2321   -3.0388   -0.0000 O   0  0  0  0  0  0  0  0  0  0  0  0
   -0.8660    0.0000   -0.0000 C   0  0  0  0  0  0  0  0  0  0  0  0
   -0.0000   -1.5000   -0.0000 C   0  0  0  0  0  0  0  0  0  0  0  0
    0.6443   -3.8479   -0.0000 C   0  0  0  0  0  0  0  0  0  0  0  0
   -1.7321   -0.5000   -0.0000 C   0  0  0  0  0  0  0  0  0  0  0  0
   -0.8660   -2.0000   -0.0000 C   0  0  0  0  0  0  0  0  0  0  0  0
   -0.3503   -3.7433   -0.0000 C   0  0  0  0  0  0  0  0  0  0  0  0
    1.0510   -4.7614   -0.0000 C   0  0  0  0  0  0  0  0  0  0  0  0
   -1.7321   -1.5000   -0.0000 C   0  0  0  0  0  0  0  0  0  0  0  0
   -0.7570   -2.8298   -0.0000 O   0  0  0  0  0  0  0  0  0  0  0  0
   -0.9380   -4.5523   -0.0000 O   0  0  0  0  0  0  0  0  0  0  0  0
    0.4632   -5.5704   -0.0000 C   0  0  0  0  0  0  0  0  0  0  0  0
   -2.5981   -2.0000   -0.0000 N   0  0  0  0  0  0  0  0  0  0  0  0
   -0.5313   -5.4659   -0.0000 C   0  0  0  0  0  0  0  0  0  0  0  0
    0.8700   -6.4840   -0.0000 C   0  0  0  0  0  0  0  0  0  0  0  0
   -3.4641   -1.5000   -0.0000 C   0  0  0  0  0  0  0  0  0  0  0  0
   -1.1191   -6.2749   -0.0000 C   0  0  0  0  0  0  0  0  0  0  0  0
    0.2822   -7.2930   -0.0000 C   0  0  0  0  0  0  0  0  0  0  0  0
   -3.4641   -0.5000   -0.0000 N   0  0  0  0  0  0  0  0  0  0  0  0
   -4.3301   -2.0000   -0.0000 C   0  0  0  0  0  0  0  0  0  0  0  0
   -0.7124   -7.1885   -0.0000 C   0  0  0  0  0  0  0  0  0  0  0  0
   -2.6551    0.0878   -0.0000 N   0  0  0  0  0  0  0  0  0  0  0  0
   -4.2731    0.0878   -0.0000 C   0  0  0  0  0  0  0  0  0  0  0  0
   -5.1962   -1.5000   -0.0000 C   0  0  0  0  0  0  0  0  0  0  0  0
   -4.3301   -3.0000   -0.0000 C   0  0  0  0  0  0  0  0  0  0  0  0
   -2.9641    1.0388   -0.0000 C   0  0  0  0  0  0  0  0  0  0  0  0
   -5.2242   -0.2212   -0.0000 S   0  0  0  0  0  0  0  0  0  0  0  0
   -3.9641    1.0388   -0.0000 O   0  0  0  0  0  0  0  0  0  0  0  0
   -6.0622   -2.0000   -0.0000 C   0  0  0  0  0  0  0  0  0  0  0  0
   -5.1962   -3.5000   -0.0000 C   0  0  0  0  0  0  0  0  0  0  0  0
   -2.3763    1.8479   -0.0000 C   0  0  0  0  0  0  0  0  0  0  0  0
   -6.0622   -3.0000   -0.0000 C   0  0  0  0  0  0  0  0  0  0  0  0
   -1.3818    1.7433   -0.0000 C   0  0  0  0  0  0  0  0  0  0  0  0
   -2.7831    2.7614   -0.0000 C   0  0  0  0  0  0  0  0  0  0  0  0
   -6.9282   -3.5000   -0.0000 Cl  0  0  0  0  0  0  0  0  0  0  0  0
   -0.7940    2.5523   -0.0000 C   0  0  0  0  0  0  0  0  0  0  0  0
   -0.9751    0.8298   -0.0000 C   0  0  0  0  0  0  0  0  0  0  0  0
   -2.1953    3.5704   -0.0000 C   0  0  0  0  0  0  0  0  0  0  0  0
   -1.2007    3.4659   -0.0000 O   0  0  0  0  0  0  0  0  0  0  0  0
    0.2005    2.4478   -0.0000 C   0  0  0  0  0  0  0  0  0  0  0  0
    0.0195    0.7253   -0.0000 C   0  0  0  0  0  0  0  0  0  0  0  0
   -2.6020    4.4840   -0.0000 O   0  0  0  0  0  0  0  0  0  0  0  0
    0.6072    1.5343   -0.0000 C   0  0  0  0  0  0  0  0  0  0  0  0
  1  2  1  0  0  0  0
  2  3  2  0  0  0  0
  2  4  1  0  0  0  0
  3  5  1  0  0  0  0
  4  6  2  0  0  0  0
  5  7  2  0  0  0  0
  7  8  1  0  0  0  0
  8  9  1  0  0  0  0
  8 10  1  0  0  0  0
  9 11  1  0  0  0  0
  9 12  1  0  0  0  0
 10 13  1  0  0  0  0
 11 14  2  0  0  0  0
 12 15  2  0  0  0  0
 12 16  1  0  0  0  0
 13 17  2  0  0  0  0
 13 18  1  0  0  0  0
 14 19  1  0  0  0  0
 17 20  1  0  0  0  0
 18 21  2  0  0  0  0
 19 22  1  0  0  0  0
 19 23  2  0  0  0  0
 20 24  2  0  0  0  0
 22 25  2  0  0  0  0
 22 26  1  0  0  0  0
 23 27  1  0  0  0  0
 24 28  1  0  0  0  0
 26 29  1  0  0  0  0
 27 30  2  0  0  0  0
 28 31  1  0  0  0  0
 29 32  2  0  0  0  0
 30 33  1  0  0  0  0
 31 34  1  0  0  0  0
 31 35  1  0  0  0  0
 32 36  1  0  0  0  0
 34 37  1  0  0  0  0
 34 38  1  0  0  0  0
 35 39  2  0  0  0  0
 35 40  1  0  0  0  0
 37 41  2  0  0  0  0
 38 42  2  0  0  0  0
 38 43  1  0  0  0  0
 39 44  1  0  0  0  0
 40 45  2  0  0  0  0
 41 46  1  0  0  0  0
 44 47  2  0  0  0  0
 46 48  1  0  0  0  0
 46 49  2  0  0  0  0
 47 50  1  0  0  0  0
 48 51  2  0  0  0  0
 48 52  1  0  0  0  0
 49 53  1  0  0  0  0
 51 54  1  0  0  0  0
 51 55  1  0  0  0  0
 52 56  2  0  0  0  0
 53 57  2  0  0  0  0
 55 58  2  0  0  0  0
  6  7  1  0  0  0  0
 14 16  1  0  0  0  0
 21 24  1  0  0  0  0
 27 29  1  0  0  0  0
 33 36  2  0  0  0  0
 41 43  1  0  0  0  0
 45 47  1  0  0  0  0
 53 54  1  0  0  0  0
 56 58  1  0  0  0  0
M  END
>  <S/N>
408

>  <Compound ID>
C_425

>  <PubChem CID>
155520318

>  <Isomeric SMILES>
C1=CC=C2C(=C1)C=C(C(=O)O2)C3=NN(C(=S)O3)C(C4=CC=C(C=C4)Cl)NC5=CC=C(C=C5)NC(C6=CC=C(C=C6)Cl)N7C(=S)OC(=N7)C8=CC(=O)OC9=CC=CC=C98

>  <IC50 (�M)>
0.07

>  <pIC50>
7.15

$$$$
C_426
Actelion Java MolfileCreator 1.0

 29 32  0  0  0  0  0  0  0  0999 V2000
    1.7321    4.5000   -0.0000 Br  0  0  0  0  0  0  0  0  0  0  0  0
    2.5981    4.0000   -0.0000 C   0  0  0  0  0  0  0  0  0  0  0  0
    2.5981    3.0000   -0.0000 C   0  0  0  0  0  0  0  0  0  0  0  0
    3.4641    4.5000   -0.0000 C   0  0  0  0  0  0  0  0  0  0  0  0
    3.4641    2.5000   -0.0000 C   0  0  0  0  0  0  0  0  0  0  0  0
    4.3301    4.0000   -0.0000 C   0  0  0  0  0  0  0  0  0  0  0  0
    3.4641    1.5000   -0.0000 C   0  0  0  0  0  0  0  0  0  0  0  0
    4.3301    3.0000   -0.0000 C   0  0  0  0  0  0  0  0  0  0  0  0
    2.5981    1.0000   -0.0000 N   0  0  0  0  0  0  0  0  0  0  0  0
    4.3301    1.0000   -0.0000 C   0  0  0  0  0  0  0  0  0  0  0  0
    2.5981   -0.0000   -0.0000 C   0  0  0  0  0  0  0  0  0  0  0  0
    4.3301   -0.0000   -0.0000 C   0  0  0  0  0  0  0  0  0  0  0  0
    1.7321   -0.5000   -0.0000 S   0  0  0  0  0  0  0  0  0  0  0  0
    3.4641   -0.5000   -0.0000 N   0  0  0  0  0  0  0  0  0  0  0  0
    5.1962   -0.5000   -0.0000 C   0  0  0  0  0  0  0  0  0  0  0  0
    0.8660   -0.0000   -0.0000 C   0  0  0  0  0  0  0  0  0  0  0  0
    5.1962   -1.5000   -0.0000 C   0  0  0  0  0  0  0  0  0  0  0  0
    6.0622   -0.0000   -0.0000 C   0  0  0  0  0  0  0  0  0  0  0  0
    0.0000   -0.5000   -0.0000 C   0  0  0  0  0  0  0  0  0  0  0  0
    6.0622   -2.0000   -0.0000 C   0  0  0  0  0  0  0  0  0  0  0  0
    6.9282   -0.5000   -0.0000 C   0  0  0  0  0  0  0  0  0  0  0  0
   -0.8660    0.0000   -0.0000 C   0  0  0  0  0  0  0  0  0  0  0  0
   -0.0000   -1.5000   -0.0000 C   0  0  0  0  0  0  0  0  0  0  0  0
    6.9282   -1.5000   -0.0000 C   0  0  0  0  0  0  0  0  0  0  0  0
   -0.8660    1.0000   -0.0000 Cl  0  0  0  0  0  0  0  0  0  0  0  0
   -1.7321   -0.5000   -0.0000 C   0  0  0  0  0  0  0  0  0  0  0  0
   -0.8660   -2.0000   -0.0000 C   0  0  0  0  0  0  0  0  0  0  0  0
    7.7942   -2.0000   -0.0000 C   0  0  0  0  0  0  0  0  0  0  0  0
   -1.7321   -1.5000   -0.0000 C   0  0  0  0  0  0  0  0  0  0  0  0
  1  2  1  0  0  0  0
  2  3  2  0  0  0  0
  2  4  1  0  0  0  0
  3  5  1  0  0  0  0
  4  6  2  0  0  0  0
  5  7  1  0  0  0  0
  5  8  2  0  0  0  0
  7  9  2  0  0  0  0
  7 10  1  0  0  0  0
  9 11  1  0  0  0  0
 10 12  2  0  0  0  0
 11 13  1  0  0  0  0
 11 14  2  0  0  0  0
 12 15  1  0  0  0  0
 13 16  1  0  0  0  0
 15 17  2  0  0  0  0
 15 18  1  0  0  0  0
 16 19  1  0  0  0  0
 17 20  1  0  0  0  0
 18 21  2  0  0  0  0
 19 22  2  0  0  0  0
 19 23  1  0  0  0  0
 20 24  2  0  0  0  0
 22 25  1  0  0  0  0
 22 26  1  0  0  0  0
 23 27  2  0  0  0  0
 24 28  1  0  0  0  0
 26 29  2  0  0  0  0
  6  8  1  0  0  0  0
 12 14  1  0  0  0  0
 21 24  1  0  0  0  0
 27 29  1  0  0  0  0
M  END
>  <S/N>
409

>  <Compound ID>
C_426

>  <PubChem CID>
155520883

>  <Isomeric SMILES>
CC1=CC=C(C=C1)C2=CC(=NC(=N2)SCC3=CC=CC=C3Cl)C4=CC(=CC=C4)Br

>  <IC50 (�M)>
19

>  <pIC50>
4.72

$$$$
C_427
Actelion Java MolfileCreator 1.0

 30 33  0  0  0  0  0  0  0  0999 V2000
   10.6350   -6.0260   -0.0000 Br  0  0  0  0  0  0  0  0  0  0  0  0
   10.5305   -5.0315   -0.0000 C   0  0  0  0  0  0  0  0  0  0  0  0
    9.6169   -4.6247   -0.0000 C   0  0  0  0  0  0  0  0  0  0  0  0
   11.3395   -4.4437   -0.0000 C   0  0  0  0  0  0  0  0  0  0  0  0
    9.5124   -3.6302   -0.0000 C   0  0  0  0  0  0  0  0  0  0  0  0
    8.7034   -5.0315   -0.0000 C   0  0  0  0  0  0  0  0  0  0  0  0
   11.2350   -3.4492   -0.0000 C   0  0  0  0  0  0  0  0  0  0  0  0
   10.3214   -3.0424   -0.0000 N   0  0  0  0  0  0  0  0  0  0  0  0
    8.5343   -3.4223   -0.0000 N   0  0  0  0  0  0  0  0  0  0  0  0
    8.0343   -4.2883   -0.0000 C   0  0  0  0  0  0  0  0  0  0  0  0
    8.1275   -2.5088   -0.0000 C   0  0  0  0  0  0  0  0  0  0  0  0
    8.7153   -1.6997   -0.0000 C   0  0  0  0  0  0  0  0  0  0  0  0
    7.1330   -2.4042   -0.0000 C   0  0  0  0  0  0  0  0  0  0  0  0
    8.3086   -0.7862   -0.0000 C   0  0  0  0  0  0  0  0  0  0  0  0
    6.7263   -1.4907   -0.0000 C   0  0  0  0  0  0  0  0  0  0  0  0
    7.3141   -0.6817   -0.0000 C   0  0  0  0  0  0  0  0  0  0  0  0
    6.9073    0.2319   -0.0000 C   0  0  0  0  0  0  0  0  0  0  0  0
    5.9128    0.3364   -0.0000 C   0  0  0  0  0  0  0  0  0  0  0  0
    5.4128    1.2024   -0.0000 S   0  0  0  0  0  0  0  0  0  0  0  0
    5.2437   -0.4067   -0.0000 C   0  0  0  0  0  0  0  0  0  0  0  0
    4.4347    0.9945   -0.0000 C   0  0  0  0  0  0  0  0  0  0  0  0
    5.4516   -1.3849   -0.0000 O   0  0  0  0  0  0  0  0  0  0  0  0
    4.3301   -0.0000   -0.0000 N   0  0  0  0  0  0  0  0  0  0  0  0
    3.6915    1.6637   -0.0000 O   0  0  0  0  0  0  0  0  0  0  0  0
    3.4641   -0.5000   -0.0000 C   0  0  0  0  0  0  0  0  0  0  0  0
    2.5981   -0.0000   -0.0000 C   0  0  0  0  0  0  0  0  0  0  0  0
    2.5981    1.0000   -0.0000 O   0  0  0  0  0  0  0  0  0  0  0  0
    1.7321   -0.5000   -0.0000 O   0  0  0  0  0  0  0  0  0  0  0  0
    0.8660   -0.0000   -0.0000 C   0  0  0  0  0  0  0  0  0  0  0  0
    0.0000   -0.5000   -0.0000 C   0  0  0  0  0  0  0  0  0  0  0  0
  1  2  1  0  0  0  0
  2  3  2  0  0  0  0
  2  4  1  0  0  0  0
  3  5  1  0  0  0  0
  3  6  1  0  0  0  0
  4  7  2  0  0  0  0
  5  8  2  0  0  0  0
  5  9  1  0  0  0  0
  6 10  2  0  0  0  0
  9 11  1  0  0  0  0
 11 12  2  0  0  0  0
 11 13  1  0  0  0  0
 12 14  1  0  0  0  0
 13 15  2  0  0  0  0
 14 16  2  0  0  0  0
 16 17  1  0  0  0  0
 17 18  2  0  0  0  0
 18 19  1  0  0  0  0
 18 20  1  0  0  0  0
 19 21  1  0  0  0  0
 20 22  2  0  0  0  0
 20 23  1  0  0  0  0
 21 24  2  0  0  0  0
 23 25  1  0  0  0  0
 25 26  1  0  0  0  0
 26 27  2  0  0  0  0
 26 28  1  0  0  0  0
 28 29  1  0  0  0  0
 29 30  1  0  0  0  0
  7  8  1  0  0  0  0
  9 10  1  0  0  0  0
 15 16  1  0  0  0  0
 21 23  1  0  0  0  0
M  END
>  <S/N>
410

>  <Compound ID>
C_427

>  <PubChem CID>
155520902

>  <Isomeric SMILES>
CCOC(=O)CN1C(=O)/C(=C\C2=CC=C(C=C2)N3C=CC4=C(C=CN=C43)Br)/SC1=O

>  <IC50 (�M)>
0.55

>  <pIC50>
6.26

$$$$
C_428
Actelion Java MolfileCreator 1.0

 19 21  0  0  0  0  0  0  0  0999 V2000
    2.5981   -0.0000   -0.0000 O   0  0  0  0  0  0  0  0  0  0  0  0
    1.7321   -0.5000   -0.0000 C   0  0  0  0  0  0  0  0  0  0  0  0
    1.7321   -1.5000   -0.0000 C   0  0  0  0  0  0  0  0  0  0  0  0
    0.8660   -0.0000   -0.0000 C   0  0  0  0  0  0  0  0  0  0  0  0
    2.5981   -2.0000   -0.0000 C   0  0  0  0  0  0  0  0  0  0  0  0
    0.8660   -2.0000   -0.0000 C   0  0  0  0  0  0  0  0  0  0  0  0
    0.0000   -0.5000   -0.0000 N   0  0  0  0  0  0  0  0  0  0  0  0
    3.4641   -1.5000   -0.0000 O   0  0  0  0  0  0  0  0  0  0  0  0
    2.5981   -3.0000   -0.0000 C   0  0  0  0  0  0  0  0  0  0  0  0
    0.8660   -3.0000   -0.0000 C   0  0  0  0  0  0  0  0  0  0  0  0
   -0.1045   -1.4945   -0.0000 N   0  0  0  0  0  0  0  0  0  0  0  0
   -0.9135   -0.0933   -0.0000 C   0  0  0  0  0  0  0  0  0  0  0  0
    1.7321   -3.5000   -0.0000 C   0  0  0  0  0  0  0  0  0  0  0  0
   -1.0827   -1.7024   -0.0000 N   0  0  0  0  0  0  0  0  0  0  0  0
   -1.5827   -0.8364   -0.0000 C   0  0  0  0  0  0  0  0  0  0  0  0
   -1.2226    0.8578   -0.0000 C   0  0  0  0  0  0  0  0  0  0  0  0
   -2.5608   -0.6285   -0.0000 C   0  0  0  0  0  0  0  0  0  0  0  0
   -2.2007    1.0657   -0.0000 C   0  0  0  0  0  0  0  0  0  0  0  0
   -2.8698    0.3226   -0.0000 C   0  0  0  0  0  0  0  0  0  0  0  0
  1  2  2  0  0  0  0
  2  3  1  0  0  0  0
  2  4  1  0  0  0  0
  3  5  2  0  0  0  0
  3  6  1  0  0  0  0
  4  7  1  0  0  0  0
  5  8  1  0  0  0  0
  5  9  1  0  0  0  0
  6 10  2  0  0  0  0
  7 11  1  0  0  0  0
  7 12  1  0  0  0  0
  9 13  2  0  0  0  0
 11 14  2  0  0  0  0
 12 15  2  0  0  0  0
 12 16  1  0  0  0  0
 15 17  1  0  0  0  0
 16 18  2  0  0  0  0
 17 19  2  0  0  0  0
 10 13  1  0  0  0  0
 14 15  1  0  0  0  0
 18 19  1  0  0  0  0
M  END
>  <S/N>
411

>  <Compound ID>
C_428

>  <PubChem CID>
155520978

>  <Isomeric SMILES>
C1=CC=C(C(=C1)C(=O)CN2C3=CC=CC=C3N=N2)O

>  <IC50 (�M)>
4.87

>  <pIC50>
5.31

$$$$
C_429
Actelion Java MolfileCreator 1.0

 54 60  0  0  0  0  0  0  0  0999 V2000
    5.1962    2.2500   -0.0000 Cl  0  0  0  0  0  0  0  0  0  0  0  0
    6.4952    1.5000   -0.0000 C   0  0  0  0  0  0  0  0  0  0  0  0
    6.4952   -0.0000   -0.0000 C   0  0  0  0  0  0  0  0  0  0  0  0
    7.7942    2.2500   -0.0000 C   0  0  0  0  0  0  0  0  0  0  0  0
    5.1962   -0.7500   -0.0000 S   0  0  0  0  0  0  0  0  0  0  0  0
    7.7942   -0.7500   -0.0000 C   0  0  0  0  0  0  0  0  0  0  0  0
    9.0933    1.5000   -0.0000 C   0  0  0  0  0  0  0  0  0  0  0  0
    4.4462   -2.0490   -0.0000 O   0  0  0  0  0  0  0  0  0  0  0  0
    5.9462   -2.0490   -0.0000 O   0  0  0  0  0  0  0  0  0  0  0  0
    3.8971   -0.0000   -0.0000 N   0  0  0  0  0  0  0  0  0  0  0  0
    9.0933    0.0000   -0.0000 C   0  0  0  0  0  0  0  0  0  0  0  0
    2.5981   -0.7500   -0.0000 N   0  0  0  0  0  0  0  0  0  0  0  0
    1.2990   -0.0000   -0.0000 C   0  0  0  0  0  0  0  0  0  0  0  0
    1.2990    1.5000   -0.0000 O   0  0  0  0  0  0  0  0  0  0  0  0
    0.0000   -0.7500   -0.0000 C   0  0  0  0  0  0  0  0  0  0  0  0
   -0.0000   -2.2500   -0.0000 C   0  0  0  0  0  0  0  0  0  0  0  0
   -1.2990    0.0000   -0.0000 C   0  0  0  0  0  0  0  0  0  0  0  0
   -1.2990   -3.0000   -0.0000 C   0  0  0  0  0  0  0  0  0  0  0  0
   -2.5981   -0.7500   -0.0000 C   0  0  0  0  0  0  0  0  0  0  0  0
   -2.5981   -2.2500   -0.0000 C   0  0  0  0  0  0  0  0  0  0  0  0
   -1.6109   -4.4672   -0.0000 C   0  0  0  0  0  0  0  0  0  0  0  0
   -3.7128   -3.2537   -0.0000 N   0  0  0  0  0  0  0  0  0  0  0  0
   -3.1027   -4.6240   -0.0000 C   0  0  0  0  0  0  0  0  0  0  0  0
   -0.6072   -5.5819   -0.0000 C   0  0  0  0  0  0  0  0  0  0  0  0
   -1.0707   -7.0085   -0.0000 C   0  0  0  0  0  0  0  0  0  0  0  0
    0.8600   -5.2701   -0.0000 C   0  0  0  0  0  0  0  0  0  0  0  0
   -2.5380   -7.3204   -0.0000 C   0  0  0  0  0  0  0  0  0  0  0  0
   -0.0670   -8.1233   -0.0000 C   0  0  0  0  0  0  0  0  0  0  0  0
    1.9747   -6.2738   -0.0000 C   0  0  0  0  0  0  0  0  0  0  0  0
    1.4701   -3.8998   -0.0000 C   0  0  0  0  0  0  0  0  0  0  0  0
   -3.0015   -8.7470   -0.0000 C   0  0  0  0  0  0  0  0  0  0  0  0
   -0.5306   -9.5498   -0.0000 C   0  0  0  0  0  0  0  0  0  0  0  0
    3.2738   -5.5238   -0.0000 C   0  0  0  0  0  0  0  0  0  0  0  0
    1.9747   -7.7738   -0.0000 C   0  0  0  0  0  0  0  0  0  0  0  0
    2.9619   -4.0566   -0.0000 N   0  0  0  0  0  0  0  0  0  0  0  0
   -1.9978   -9.8617   -0.0000 C   0  0  0  0  0  0  0  0  0  0  0  0
    4.5728   -6.2738   -0.0000 C   0  0  0  0  0  0  0  0  0  0  0  0
    3.2738   -8.5238   -0.0000 C   0  0  0  0  0  0  0  0  0  0  0  0
   -2.4613  -11.2883   -0.0000 C   0  0  0  0  0  0  0  0  0  0  0  0
    4.5728   -7.7738   -0.0000 C   0  0  0  0  0  0  0  0  0  0  0  0
    3.2738  -10.0238   -0.0000 C   0  0  0  0  0  0  0  0  0  0  0  0
    4.5728  -10.7738   -0.0000 O   0  0  0  0  0  0  0  0  0  0  0  0
    1.9747  -10.7738   -0.0000 N   0  0  0  0  0  0  0  0  0  0  0  0
    1.9747  -12.2738   -0.0000 N   0  0  0  0  0  0  0  0  0  0  0  0
    0.6757  -13.0238   -0.0000 S   0  0  0  0  0  0  0  0  0  0  0  0
   -0.0743  -11.7248   -0.0000 O   0  0  0  0  0  0  0  0  0  0  0  0
   -0.8243  -13.0238   -0.0000 O   0  0  0  0  0  0  0  0  0  0  0  0
    0.6757  -14.5238   -0.0000 C   0  0  0  0  0  0  0  0  0  0  0  0
   -0.6233  -15.2738   -0.0000 C   0  0  0  0  0  0  0  0  0  0  0  0
    1.9747  -15.2738   -0.0000 C   0  0  0  0  0  0  0  0  0  0  0  0
   -1.9224  -14.5238   -0.0000 Cl  0  0  0  0  0  0  0  0  0  0  0  0
   -0.6233  -16.7738   -0.0000 C   0  0  0  0  0  0  0  0  0  0  0  0
    1.9747  -16.7738   -0.0000 C   0  0  0  0  0  0  0  0  0  0  0  0
    0.6757  -17.5238   -0.0000 C   0  0  0  0  0  0  0  0  0  0  0  0
  1  2  1  0  0  0  0
  2  3  2  0  0  0  0
  2  4  1  0  0  0  0
  3  5  1  0  0  0  0
  3  6  1  0  0  0  0
  4  7  2  0  0  0  0
  5  8  2  0  0  0  0
  5  9  2  0  0  0  0
  5 10  1  0  0  0  0
  6 11  2  0  0  0  0
 10 12  1  0  0  0  0
 12 13  1  0  0  0  0
 13 14  2  0  0  0  0
 13 15  1  0  0  0  0
 15 16  2  0  0  0  0
 15 17  1  0  0  0  0
 16 18  1  0  0  0  0
 17 19  2  0  0  0  0
 18 20  2  0  0  0  0
 18 21  1  0  0  0  0
 20 22  1  0  0  0  0
 21 23  2  0  0  0  0
 21 24  1  0  0  0  0
 24 25  1  0  0  0  0
 24 26  1  0  0  0  0
 25 27  2  0  0  0  0
 25 28  1  0  0  0  0
 26 29  1  0  0  0  0
 26 30  2  0  0  0  0
 27 31  1  0  0  0  0
 28 32  2  0  0  0  0
 29 33  2  0  0  0  0
 29 34  1  0  0  0  0
 30 35  1  0  0  0  0
 31 36  2  0  0  0  0
 33 37  1  0  0  0  0
 34 38  2  0  0  0  0
 36 39  1  0  0  0  0
 37 40  2  0  0  0  0
 38 41  1  0  0  0  0
 41 42  2  0  0  0  0
 41 43  1  0  0  0  0
 43 44  1  0  0  0  0
 44 45  1  0  0  0  0
 45 46  2  0  0  0  0
 45 47  2  0  0  0  0
 45 48  1  0  0  0  0
 48 49  2  0  0  0  0
 48 50  1  0  0  0  0
 49 51  1  0  0  0  0
 49 52  1  0  0  0  0
 50 53  2  0  0  0  0
 52 54  2  0  0  0  0
  7 11  1  0  0  0  0
 19 20  1  0  0  0  0
 22 23  1  0  0  0  0
 32 36  1  0  0  0  0
 33 35  1  0  0  0  0
 38 40  1  0  0  0  0
 53 54  1  0  0  0  0
M  END
>  <S/N>
412

>  <Compound ID>
C_429

>  <PubChem CID>
155521316

>  <Isomeric SMILES>
CC1=CC=C(C=C1)C(C2=CNC3=C2C=C(C=C3)C(=O)NNS(=O)(=O)C4=CC=CC=C4Cl)C5=CNC6=C5C=C(C=C6)C(=O)NNS(=O)(=O)C7=CC=CC=C7Cl

>  <IC50 (�M)>
0.1

>  <pIC50>
7

$$$$
C_430
Actelion Java MolfileCreator 1.0

 68 77  0  0  0  0  0  0  0  0999 V2000
    3.7195   -1.3849   -0.0000 S   0  0  0  0  0  0  0  0  0  0  0  0
    3.5116   -0.4067   -0.0000 C   0  0  0  0  0  0  0  0  0  0  0  0
    4.1808    0.3364   -0.0000 O   0  0  0  0  0  0  0  0  0  0  0  0
    2.5981   -0.0000   -0.0000 N   0  0  0  0  0  0  0  0  0  0  0  0
    3.6808    1.2024   -0.0000 C   0  0  0  0  0  0  0  0  0  0  0  0
    2.7026    0.9945   -0.0000 N   0  0  0  0  0  0  0  0  0  0  0  0
    1.7321   -0.5000   -0.0000 C   0  0  0  0  0  0  0  0  0  0  0  0
    4.0875    2.1160   -0.0000 C   0  0  0  0  0  0  0  0  0  0  0  0
    0.8660   -0.0000   -0.0000 N   0  0  0  0  0  0  0  0  0  0  0  0
    1.7321   -1.5000   -0.0000 C   0  0  0  0  0  0  0  0  0  0  0  0
    5.0820    2.2205   -0.0000 C   0  0  0  0  0  0  0  0  0  0  0  0
    3.4997    2.9250   -0.0000 C   0  0  0  0  0  0  0  0  0  0  0  0
    0.0000   -0.5000   -0.0000 C   0  0  0  0  0  0  0  0  0  0  0  0
    0.8660   -2.0000   -0.0000 C   0  0  0  0  0  0  0  0  0  0  0  0
    2.5981   -2.0000   -0.0000 C   0  0  0  0  0  0  0  0  0  0  0  0
    5.6698    1.4115   -0.0000 O   0  0  0  0  0  0  0  0  0  0  0  0
    5.4887    3.1341   -0.0000 O   0  0  0  0  0  0  0  0  0  0  0  0
    3.9064    3.8385   -0.0000 C   0  0  0  0  0  0  0  0  0  0  0  0
   -0.8660    0.0000   -0.0000 C   0  0  0  0  0  0  0  0  0  0  0  0
   -0.0000   -1.5000   -0.0000 C   0  0  0  0  0  0  0  0  0  0  0  0
    0.8660   -3.0000   -0.0000 C   0  0  0  0  0  0  0  0  0  0  0  0
    2.5981   -3.0000   -0.0000 C   0  0  0  0  0  0  0  0  0  0  0  0
    4.9010    3.9431   -0.0000 C   0  0  0  0  0  0  0  0  0  0  0  0
    3.3187    4.6476   -0.0000 C   0  0  0  0  0  0  0  0  0  0  0  0
   -1.7321   -0.5000   -0.0000 C   0  0  0  0  0  0  0  0  0  0  0  0
   -0.8660   -2.0000   -0.0000 C   0  0  0  0  0  0  0  0  0  0  0  0
    1.7321   -3.5000   -0.0000 C   0  0  0  0  0  0  0  0  0  0  0  0
    5.3077    4.8566   -0.0000 C   0  0  0  0  0  0  0  0  0  0  0  0
    3.7254    5.5611   -0.0000 C   0  0  0  0  0  0  0  0  0  0  0  0
   -1.7321   -1.5000   -0.0000 C   0  0  0  0  0  0  0  0  0  0  0  0
    1.7321   -4.5000   -0.0000 N   0  0  0  0  0  0  0  0  0  0  0  0
    4.7199    5.6656   -0.0000 C   0  0  0  0  0  0  0  0  0  0  0  0
   -2.5981   -2.0000   -0.0000 C   0  0  0  0  0  0  0  0  0  0  0  0
    0.8660   -5.0000   -0.0000 O   0  0  0  0  0  0  0  0  0  0  0  0
    2.5981   -5.0000   -0.0000 O   0  0  0  0  0  0  0  0  0  0  0  0
   -3.4641   -1.5000   -0.0000 C   0  0  0  0  0  0  0  0  0  0  0  0
   -2.5981   -3.0000   -0.0000 C   0  0  0  0  0  0  0  0  0  0  0  0
   -4.3301   -2.0000   -0.0000 C   0  0  0  0  0  0  0  0  0  0  0  0
   -3.4641   -3.5000   -0.0000 C   0  0  0  0  0  0  0  0  0  0  0  0
   -4.3301   -3.0000   -0.0000 C   0  0  0  0  0  0  0  0  0  0  0  0
   -5.1962   -3.5000   -0.0000 N   0  0  0  0  0  0  0  0  0  0  0  0
   -6.0622   -3.0000   -0.0000 C   0  0  0  0  0  0  0  0  0  0  0  0
   -6.9282   -3.5000   -0.0000 N   0  0  0  0  0  0  0  0  0  0  0  0
   -6.0622   -2.0000   -0.0000 C   0  0  0  0  0  0  0  0  0  0  0  0
   -7.8417   -3.0933   -0.0000 N   0  0  0  0  0  0  0  0  0  0  0  0
   -7.0327   -4.4945   -0.0000 C   0  0  0  0  0  0  0  0  0  0  0  0
   -6.9282   -1.5000   -0.0000 C   0  0  0  0  0  0  0  0  0  0  0  0
   -5.1962   -1.5000   -0.0000 C   0  0  0  0  0  0  0  0  0  0  0  0
   -8.5109   -3.8364   -0.0000 C   0  0  0  0  0  0  0  0  0  0  0  0
   -6.2896   -5.1637   -0.0000 S   0  0  0  0  0  0  0  0  0  0  0  0
   -8.0109   -4.7024   -0.0000 O   0  0  0  0  0  0  0  0  0  0  0  0
   -6.9282   -0.5000   -0.0000 C   0  0  0  0  0  0  0  0  0  0  0  0
   -5.1962   -0.5000   -0.0000 C   0  0  0  0  0  0  0  0  0  0  0  0
   -9.5054   -3.7319   -0.0000 C   0  0  0  0  0  0  0  0  0  0  0  0
   -6.0622    0.0000   -0.0000 C   0  0  0  0  0  0  0  0  0  0  0  0
   -9.9121   -2.8183   -0.0000 C   0  0  0  0  0  0  0  0  0  0  0  0
  -10.0932   -4.5409   -0.0000 C   0  0  0  0  0  0  0  0  0  0  0  0
   -6.0622    1.0000   -0.0000 N   0  0  0  0  0  0  0  0  0  0  0  0
  -10.9067   -2.7138   -0.0000 C   0  0  0  0  0  0  0  0  0  0  0  0
   -9.3244   -2.0093   -0.0000 C   0  0  0  0  0  0  0  0  0  0  0  0
  -11.0877   -4.4364   -0.0000 C   0  0  0  0  0  0  0  0  0  0  0  0
   -6.9282    1.5000   -0.0000 O   0  0  0  0  0  0  0  0  0  0  0  0
   -5.1962    1.5000   -0.0000 O   0  0  0  0  0  0  0  0  0  0  0  0
  -11.4944   -3.5228   -0.0000 O   0  0  0  0  0  0  0  0  0  0  0  0
  -11.3134   -1.8003   -0.0000 C   0  0  0  0  0  0  0  0  0  0  0  0
   -9.7311   -1.0958   -0.0000 C   0  0  0  0  0  0  0  0  0  0  0  0
  -11.6755   -5.2454   -0.0000 O   0  0  0  0  0  0  0  0  0  0  0  0
  -10.7256   -0.9912   -0.0000 C   0  0  0  0  0  0  0  0  0  0  0  0
  1  2  2  0  0  0  0
  2  3  1  0  0  0  0
  2  4  1  0  0  0  0
  3  5  1  0  0  0  0
  4  6  1  0  0  0  0
  4  7  1  0  0  0  0
  5  8  1  0  0  0  0
  7  9  1  0  0  0  0
  7 10  1  0  0  0  0
  8 11  1  0  0  0  0
  8 12  2  0  0  0  0
  9 13  1  0  0  0  0
 10 14  2  0  0  0  0
 10 15  1  0  0  0  0
 11 16  2  0  0  0  0
 11 17  1  0  0  0  0
 12 18  1  0  0  0  0
 13 19  2  0  0  0  0
 13 20  1  0  0  0  0
 14 21  1  0  0  0  0
 15 22  2  0  0  0  0
 17 23  1  0  0  0  0
 18 24  1  0  0  0  0
 19 25  1  0  0  0  0
 20 26  2  0  0  0  0
 21 27  2  0  0  0  0
 23 28  1  0  0  0  0
 24 29  2  0  0  0  0
 25 30  2  0  0  0  0
 27 31  1  0  0  0  0
 28 32  2  0  0  0  0
 30 33  1  0  0  0  0
 31 34  2  0  0  0  0
 31 35  1  0  0  0  0
 33 36  2  0  0  0  0
 33 37  1  0  0  0  0
 36 38  1  0  0  0  0
 37 39  2  0  0  0  0
 38 40  2  0  0  0  0
 40 41  1  0  0  0  0
 41 42  1  0  0  0  0
 42 43  1  0  0  0  0
 42 44  1  0  0  0  0
 43 45  1  0  0  0  0
 43 46  1  0  0  0  0
 44 47  2  0  0  0  0
 44 48  1  0  0  0  0
 45 49  2  0  0  0  0
 46 50  2  0  0  0  0
 46 51  1  0  0  0  0
 47 52  1  0  0  0  0
 48 53  2  0  0  0  0
 49 54  1  0  0  0  0
 52 55  2  0  0  0  0
 54 56  1  0  0  0  0
 54 57  2  0  0  0  0
 55 58  1  0  0  0  0
 56 59  2  0  0  0  0
 56 60  1  0  0  0  0
 57 61  1  0  0  0  0
 58 62  2  0  0  0  0
 58 63  1  0  0  0  0
 59 64  1  0  0  0  0
 59 65  1  0  0  0  0
 60 66  2  0  0  0  0
 61 67  2  0  0  0  0
 65 68  2  0  0  0  0
  5  6  2  0  0  0  0
 18 23  2  0  0  0  0
 22 27  1  0  0  0  0
 26 30  1  0  0  0  0
 29 32  1  0  0  0  0
 39 40  1  0  0  0  0
 49 51  1  0  0  0  0
 53 55  1  0  0  0  0
 61 64  1  0  0  0  0
 66 68  1  0  0  0  0
M  CHG  4  31   1  35  -1  58   1  63  -1
M  END
>  <S/N>
413

>  <Compound ID>
C_430

>  <PubChem CID>
155521807

>  <Isomeric SMILES>
C1=CC=C2C(=C1)C=C(C(=O)O2)C3=NN(C(=S)O3)C(C4=CC=C(C=C4)[N+](=O)[O-])NC5=CC=C(C=C5)C6=CC=C(C=C6)NC(C7=CC=C(C=C7)[N+](=O)[O-])N8C(=S)OC(=N8)C9=CC(=O)OC1=CC=CC=C19

>  <IC50 (�M)>
0.07

>  <pIC50>
7.15

$$$$
C_431
Actelion Java MolfileCreator 1.0

 23 25  0  0  0  0  0  0  0  0999 V2000
    7.7942    3.7500   -0.0000 F   0  0  0  0  0  0  0  0  0  0  0  0
    7.7942    2.2500   -0.0000 C   0  0  0  0  0  0  0  0  0  0  0  0
    6.4952    1.5000   -0.0000 C   0  0  0  0  0  0  0  0  0  0  0  0
    9.0933    1.5000   -0.0000 C   0  0  0  0  0  0  0  0  0  0  0  0
    6.4952   -0.0000   -0.0000 C   0  0  0  0  0  0  0  0  0  0  0  0
    9.0933   -0.0000   -0.0000 C   0  0  0  0  0  0  0  0  0  0  0  0
    7.7942   -0.7500   -0.0000 C   0  0  0  0  0  0  0  0  0  0  0  0
    5.1962   -0.7500   -0.0000 C   0  0  0  0  0  0  0  0  0  0  0  0
    3.8971   -0.0000   -0.0000 N   0  0  0  0  0  0  0  0  0  0  0  0
    2.5981   -0.7500   -0.0000 N   0  0  0  0  0  0  0  0  0  0  0  0
    1.2990   -0.0000   -0.0000 C   0  0  0  0  0  0  0  0  0  0  0  0
    1.2990    1.5000   -0.0000 O   0  0  0  0  0  0  0  0  0  0  0  0
    0.0000   -0.7500   -0.0000 C   0  0  0  0  0  0  0  0  0  0  0  0
   -1.2990    0.0000   -0.0000 C   0  0  0  0  0  0  0  0  0  0  0  0
   -0.0000   -2.2500   -0.0000 C   0  0  0  0  0  0  0  0  0  0  0  0
   -1.2990    1.5000   -0.0000 O   0  0  0  0  0  0  0  0  0  0  0  0
   -2.5981   -0.7500   -0.0000 O   0  0  0  0  0  0  0  0  0  0  0  0
   -1.2990   -3.0000   -0.0000 C   0  0  0  0  0  0  0  0  0  0  0  0
   -2.5981   -2.2500   -0.0000 C   0  0  0  0  0  0  0  0  0  0  0  0
   -1.2990   -4.5000   -0.0000 C   0  0  0  0  0  0  0  0  0  0  0  0
   -3.8971   -3.0000   -0.0000 C   0  0  0  0  0  0  0  0  0  0  0  0
   -2.5981   -5.2500   -0.0000 C   0  0  0  0  0  0  0  0  0  0  0  0
   -3.8971   -4.5000   -0.0000 C   0  0  0  0  0  0  0  0  0  0  0  0
  1  2  1  0  0  0  0
  2  3  2  0  0  0  0
  2  4  1  0  0  0  0
  3  5  1  0  0  0  0
  4  6  2  0  0  0  0
  5  7  2  0  0  0  0
  5  8  1  0  0  0  0
  8  9  2  0  0  0  0
  9 10  1  0  0  0  0
 10 11  1  0  0  0  0
 11 12  2  0  0  0  0
 11 13  1  0  0  0  0
 13 14  1  0  0  0  0
 13 15  2  0  0  0  0
 14 16  2  0  0  0  0
 14 17  1  0  0  0  0
 15 18  1  0  0  0  0
 17 19  1  0  0  0  0
 18 20  2  0  0  0  0
 19 21  2  0  0  0  0
 20 22  1  0  0  0  0
 21 23  1  0  0  0  0
  6  7  1  0  0  0  0
 18 19  1  0  0  0  0
 22 23  2  0  0  0  0
M  END
>  <S/N>
414

>  <Compound ID>
C_431

>  <PubChem CID>
155522269

>  <Isomeric SMILES>
C1=CC=C2C(=C1)C=C(C(=O)O2)C(=O)N/N=C/C3=CC(=CC=C3)F

>  <IC50 (�M)>
1.1

>  <pIC50>
5.96

$$$$
C_432
Actelion Java MolfileCreator 1.0

 43 50  0  0  0  0  0  0  0  0999 V2000
    7.8655   -2.3899   -0.0000 O   0  0  0  0  0  0  0  0  0  0  0  0
    6.4952   -3.0000   -0.0000 C   0  0  0  0  0  0  0  0  0  0  0  0
    8.8692   -3.5046   -0.0000 C   0  0  0  0  0  0  0  0  0  0  0  0
    6.6520   -4.4918   -0.0000 N   0  0  0  0  0  0  0  0  0  0  0  0
    5.1962   -2.2500   -0.0000 C   0  0  0  0  0  0  0  0  0  0  0  0
    8.1192   -4.8037   -0.0000 N   0  0  0  0  0  0  0  0  0  0  0  0
   10.3610   -3.3478   -0.0000 C   0  0  0  0  0  0  0  0  0  0  0  0
    5.1962   -0.7500   -0.0000 C   0  0  0  0  0  0  0  0  0  0  0  0
    3.8971   -3.0000   -0.0000 C   0  0  0  0  0  0  0  0  0  0  0  0
   11.3647   -4.4625   -0.0000 C   0  0  0  0  0  0  0  0  0  0  0  0
   11.1110   -2.0488   -0.0000 C   0  0  0  0  0  0  0  0  0  0  0  0
    3.8971    0.0000   -0.0000 C   0  0  0  0  0  0  0  0  0  0  0  0
    2.5981   -2.2500   -0.0000 C   0  0  0  0  0  0  0  0  0  0  0  0
   12.7350   -3.8524   -0.0000 C   0  0  0  0  0  0  0  0  0  0  0  0
   11.2079   -5.9543   -0.0000 C   0  0  0  0  0  0  0  0  0  0  0  0
   12.5782   -2.3606   -0.0000 N   0  0  0  0  0  0  0  0  0  0  0  0
    2.5981   -0.7500   -0.0000 C   0  0  0  0  0  0  0  0  0  0  0  0
   13.9485   -4.7341   -0.0000 C   0  0  0  0  0  0  0  0  0  0  0  0
   12.4214   -6.8360   -0.0000 C   0  0  0  0  0  0  0  0  0  0  0  0
    1.2990   -0.0000   -0.0000 C   0  0  0  0  0  0  0  0  0  0  0  0
   13.7917   -6.2259   -0.0000 C   0  0  0  0  0  0  0  0  0  0  0  0
    1.2990    1.5000   -0.0000 C   0  0  0  0  0  0  0  0  0  0  0  0
    0.0000   -0.7500   -0.0000 C   0  0  0  0  0  0  0  0  0  0  0  0
    2.5126    2.3817   -0.0000 C   0  0  0  0  0  0  0  0  0  0  0  0
    0.0855    2.3817   -0.0000 C   0  0  0  0  0  0  0  0  0  0  0  0
   -1.3703   -0.1399   -0.0000 C   0  0  0  0  0  0  0  0  0  0  0  0
   -0.1568   -2.2418   -0.0000 C   0  0  0  0  0  0  0  0  0  0  0  0
    2.0490    3.8083   -0.0000 C   0  0  0  0  0  0  0  0  0  0  0  0
    3.9798    2.0698   -0.0000 C   0  0  0  0  0  0  0  0  0  0  0  0
    0.5490    3.8083   -0.0000 N   0  0  0  0  0  0  0  0  0  0  0  0
   -2.3740   -1.2546   -0.0000 C   0  0  0  0  0  0  0  0  0  0  0  0
   -1.8338    1.2867   -0.0000 C   0  0  0  0  0  0  0  0  0  0  0  0
   -1.6240   -2.5537   -0.0000 N   0  0  0  0  0  0  0  0  0  0  0  0
    3.0527    4.9230   -0.0000 C   0  0  0  0  0  0  0  0  0  0  0  0
    4.9835    3.1845   -0.0000 C   0  0  0  0  0  0  0  0  0  0  0  0
   -3.8412   -0.9427   -0.0000 C   0  0  0  0  0  0  0  0  0  0  0  0
   -3.3011    1.5986   -0.0000 C   0  0  0  0  0  0  0  0  0  0  0  0
    4.5200    4.6111   -0.0000 C   0  0  0  0  0  0  0  0  0  0  0  0
    6.4507    2.8727   -0.0000 C   0  0  0  0  0  0  0  0  0  0  0  0
   -4.3048    0.4838   -0.0000 C   0  0  0  0  0  0  0  0  0  0  0  0
   -3.7646    3.0251   -0.0000 C   0  0  0  0  0  0  0  0  0  0  0  0
    7.9179    2.5608   -0.0000 N   0  0  0  0  0  0  0  0  0  0  0  0
   -4.2281    4.4517   -0.0000 N   0  0  0  0  0  0  0  0  0  0  0  0
  1  2  1  0  0  0  0
  1  3  1  0  0  0  0
  2  4  2  0  0  0  0
  2  5  1  0  0  0  0
  3  6  2  0  0  0  0
  3  7  1  0  0  0  0
  5  8  2  0  0  0  0
  5  9  1  0  0  0  0
  7 10  1  0  0  0  0
  7 11  2  0  0  0  0
  8 12  1  0  0  0  0
  9 13  2  0  0  0  0
 10 14  2  0  0  0  0
 10 15  1  0  0  0  0
 11 16  1  0  0  0  0
 12 17  2  0  0  0  0
 14 18  1  0  0  0  0
 15 19  2  0  0  0  0
 17 20  1  0  0  0  0
 18 21  2  0  0  0  0
 20 22  1  0  0  0  0
 20 23  1  0  0  0  0
 22 24  1  0  0  0  0
 22 25  2  0  0  0  0
 23 26  1  0  0  0  0
 23 27  2  0  0  0  0
 24 28  2  0  0  0  0
 24 29  1  0  0  0  0
 25 30  1  0  0  0  0
 26 31  2  0  0  0  0
 26 32  1  0  0  0  0
 27 33  1  0  0  0  0
 28 34  1  0  0  0  0
 29 35  2  0  0  0  0
 31 36  1  0  0  0  0
 32 37  2  0  0  0  0
 34 38  2  0  0  0  0
 35 39  1  0  0  0  0
 36 40  2  0  0  0  0
 37 41  1  0  0  0  0
 39 42  3  0  0  0  0
 41 43  3  0  0  0  0
  4  6  1  0  0  0  0
 13 17  1  0  0  0  0
 14 16  1  0  0  0  0
 19 21  1  0  0  0  0
 28 30  1  0  0  0  0
 31 33  1  0  0  0  0
 35 38  1  0  0  0  0
 37 40  1  0  0  0  0
M  END
>  <S/N>
415

>  <Compound ID>
C_432

>  <PubChem CID>
155522295

>  <Isomeric SMILES>
C1=CC=C2C(=C1)C(=CN2)C3=NN=C(O3)C4=CC=C(C=C4)C(C5=CNC6=C5C=C(C=C6)C#N)C7=CNC8=C7C=C(C=C8)C#N

>  <IC50 (�M)>
20

>  <pIC50>
4.7

$$$$
C_433
Actelion Java MolfileCreator 1.0

 36 39  0  0  0  0  0  0  0  0999 V2000
    7.7942    0.0000   -0.0000 Cl  0  0  0  0  0  0  0  0  0  0  0  0
    6.9282   -0.5000   -0.0000 C   0  0  0  0  0  0  0  0  0  0  0  0
    6.0622    0.0000   -0.0000 C   0  0  0  0  0  0  0  0  0  0  0  0
    6.9282   -1.5000   -0.0000 C   0  0  0  0  0  0  0  0  0  0  0  0
    5.1962   -0.5000   -0.0000 C   0  0  0  0  0  0  0  0  0  0  0  0
    6.0622   -2.0000   -0.0000 C   0  0  0  0  0  0  0  0  0  0  0  0
    5.1962   -1.5000   -0.0000 C   0  0  0  0  0  0  0  0  0  0  0  0
    4.3301   -2.0000   -0.0000 N   0  0  0  0  0  0  0  0  0  0  0  0
    3.4641   -1.5000   -0.0000 C   0  0  0  0  0  0  0  0  0  0  0  0
    3.4641   -0.5000   -0.0000 S   0  0  0  0  0  0  0  0  0  0  0  0
    2.5981   -2.0000   -0.0000 N   0  0  0  0  0  0  0  0  0  0  0  0
    1.7321   -1.5000   -0.0000 N   0  0  0  0  0  0  0  0  0  0  0  0
    1.7321   -0.5000   -0.0000 C   0  0  0  0  0  0  0  0  0  0  0  0
    2.5981   -0.0000   -0.0000 O   0  0  0  0  0  0  0  0  0  0  0  0
    0.8660   -0.0000   -0.0000 C   0  0  0  0  0  0  0  0  0  0  0  0
    0.0000   -0.5000   -0.0000 N   0  0  0  0  0  0  0  0  0  0  0  0
   -0.9135   -0.0933   -0.0000 C   0  0  0  0  0  0  0  0  0  0  0  0
   -0.1045   -1.4945   -0.0000 C   0  0  0  0  0  0  0  0  0  0  0  0
   -1.5827   -0.8364   -0.0000 N   0  0  0  0  0  0  0  0  0  0  0  0
   -1.1215    0.8849   -0.0000 C   0  0  0  0  0  0  0  0  0  0  0  0
   -1.0827   -1.7024   -0.0000 N   0  0  0  0  0  0  0  0  0  0  0  0
    0.6386   -2.1637   -0.0000 C   0  0  0  0  0  0  0  0  0  0  0  0
   -0.3783    1.5540   -0.0000 C   0  0  0  0  0  0  0  0  0  0  0  0
   -2.0725    1.1939   -0.0000 C   0  0  0  0  0  0  0  0  0  0  0  0
    0.4307   -3.1418   -0.0000 C   0  0  0  0  0  0  0  0  0  0  0  0
   -0.5862    2.5322   -0.0000 C   0  0  0  0  0  0  0  0  0  0  0  0
   -2.2804    2.1720   -0.0000 C   0  0  0  0  0  0  0  0  0  0  0  0
    1.1738   -3.8109   -0.0000 C   0  0  0  0  0  0  0  0  0  0  0  0
   -0.5204   -3.4508   -0.0000 C   0  0  0  0  0  0  0  0  0  0  0  0
   -1.5373    2.8412   -0.0000 C   0  0  0  0  0  0  0  0  0  0  0  0
    0.9659   -4.7891   -0.0000 C   0  0  0  0  0  0  0  0  0  0  0  0
   -0.7283   -4.4290   -0.0000 C   0  0  0  0  0  0  0  0  0  0  0  0
   -1.7452    3.8193   -0.0000 Cl  0  0  0  0  0  0  0  0  0  0  0  0
    0.0149   -5.0981   -0.0000 C   0  0  0  0  0  0  0  0  0  0  0  0
   -0.1930   -6.0762   -0.0000 O   0  0  0  0  0  0  0  0  0  0  0  0
   -1.1441   -6.3853   -0.0000 C   0  0  0  0  0  0  0  0  0  0  0  0
  1  2  1  0  0  0  0
  2  3  2  0  0  0  0
  2  4  1  0  0  0  0
  3  5  1  0  0  0  0
  4  6  2  0  0  0  0
  5  7  2  0  0  0  0
  7  8  1  0  0  0  0
  8  9  1  0  0  0  0
  9 10  2  0  0  0  0
  9 11  1  0  0  0  0
 11 12  1  0  0  0  0
 12 13  1  0  0  0  0
 13 14  2  0  0  0  0
 13 15  1  0  0  0  0
 15 16  1  0  0  0  0
 16 17  1  0  0  0  0
 16 18  1  0  0  0  0
 17 19  2  0  0  0  0
 17 20  1  0  0  0  0
 18 21  2  0  0  0  0
 18 22  1  0  0  0  0
 20 23  2  0  0  0  0
 20 24  1  0  0  0  0
 22 25  1  0  0  0  0
 23 26  1  0  0  0  0
 24 27  2  0  0  0  0
 25 28  2  0  0  0  0
 25 29  1  0  0  0  0
 26 30  2  0  0  0  0
 28 31  1  0  0  0  0
 29 32  2  0  0  0  0
 30 33  1  0  0  0  0
 31 34  2  0  0  0  0
 34 35  1  0  0  0  0
 35 36  1  0  0  0  0
  6  7  1  0  0  0  0
 19 21  1  0  0  0  0
 27 30  1  0  0  0  0
 32 34  1  0  0  0  0
M  END
>  <S/N>
416

>  <Compound ID>
C_433

>  <PubChem CID>
155522340

>  <Isomeric SMILES>
COC1=CC=C(C=C1)CC2=NN=C(N2CC(=O)NNC(=S)NC3=CC=C(C=C3)Cl)C4=CC=C(C=C4)Cl

>  <IC50 (�M)>
3.4

>  <pIC50>
5.47

$$$$
C_434
Actelion Java MolfileCreator 1.0

 25 28  0  0  0  0  0  0  0  0999 V2000
    2.7026    0.9945   -0.0000 S   0  0  0  0  0  0  0  0  0  0  0  0
    2.5981   -0.0000   -0.0000 C   0  0  0  0  0  0  0  0  0  0  0  0
    3.6808    1.2024   -0.0000 C   0  0  0  0  0  0  0  0  0  0  0  0
    3.5116   -0.4067   -0.0000 N   0  0  0  0  0  0  0  0  0  0  0  0
    1.7321   -0.5000   -0.0000 N   0  0  0  0  0  0  0  0  0  0  0  0
    4.1808    0.3364   -0.0000 C   0  0  0  0  0  0  0  0  0  0  0  0
    0.8660   -0.0000   -0.0000 N   0  0  0  0  0  0  0  0  0  0  0  0
    5.1753    0.2319   -0.0000 C   0  0  0  0  0  0  0  0  0  0  0  0
    0.0000   -0.5000   -0.0000 C   0  0  0  0  0  0  0  0  0  0  0  0
    5.5820   -0.6817   -0.0000 C   0  0  0  0  0  0  0  0  0  0  0  0
    5.7631    1.0409   -0.0000 C   0  0  0  0  0  0  0  0  0  0  0  0
   -0.9135   -0.0933   -0.0000 C   0  0  0  0  0  0  0  0  0  0  0  0
   -0.1045   -1.4945   -0.0000 C   0  0  0  0  0  0  0  0  0  0  0  0
    6.5765   -0.7862   -0.0000 C   0  0  0  0  0  0  0  0  0  0  0  0
    6.7576    0.9364   -0.0000 C   0  0  0  0  0  0  0  0  0  0  0  0
   -1.1215    0.8849   -0.0000 O   0  0  0  0  0  0  0  0  0  0  0  0
   -1.5827   -0.8364   -0.0000 N   0  0  0  0  0  0  0  0  0  0  0  0
   -1.0827   -1.7024   -0.0000 C   0  0  0  0  0  0  0  0  0  0  0  0
    0.5646   -2.2377   -0.0000 C   0  0  0  0  0  0  0  0  0  0  0  0
    7.1643    0.0228   -0.0000 C   0  0  0  0  0  0  0  0  0  0  0  0
   -2.5772   -0.7319   -0.0000 C   0  0  0  0  0  0  0  0  0  0  0  0
   -1.3917   -2.6535   -0.0000 C   0  0  0  0  0  0  0  0  0  0  0  0
    0.2556   -3.1887   -0.0000 C   0  0  0  0  0  0  0  0  0  0  0  0
    8.1588   -0.0817   -0.0000 F   0  0  0  0  0  0  0  0  0  0  0  0
   -0.7226   -3.3966   -0.0000 C   0  0  0  0  0  0  0  0  0  0  0  0
  1  2  1  0  0  0  0
  1  3  1  0  0  0  0
  2  4  2  0  0  0  0
  2  5  1  0  0  0  0
  3  6  2  0  0  0  0
  5  7  2  3  0  0  0
  6  8  1  0  0  0  0
  7  9  1  0  0  0  0
  8 10  2  0  0  0  0
  8 11  1  0  0  0  0
  9 12  2  0  0  0  0
  9 13  1  0  0  0  0
 10 14  1  0  0  0  0
 11 15  2  0  0  0  0
 12 16  1  0  0  0  0
 12 17  1  0  0  0  0
 13 18  2  0  0  0  0
 13 19  1  0  0  0  0
 14 20  2  0  0  0  0
 17 21  1  0  0  0  0
 18 22  1  0  0  0  0
 19 23  2  0  0  0  0
 20 24  1  0  0  0  0
 22 25  2  0  0  0  0
  4  6  1  0  0  0  0
 15 20  1  0  0  0  0
 17 18  1  0  0  0  0
 23 25  1  0  0  0  0
M  END
>  <S/N>
417

>  <Compound ID>
C_434

>  <PubChem CID>
155522673

>  <Isomeric SMILES>
CN1C2=CC=CC=C2C(=C1O)N=NC3=NC(=CS3)C4=CC=C(C=C4)F

>  <IC50 (�M)>
5.3

>  <pIC50>
5.28

$$$$
C_435
Actelion Java MolfileCreator 1.0

 38 42  0  0  0  0  0  0  0  0999 V2000
    9.5263    3.0000   -0.0000 Br  0  0  0  0  0  0  0  0  0  0  0  0
    8.6603    2.5000   -0.0000 C   0  0  0  0  0  0  0  0  0  0  0  0
    7.7942    3.0000   -0.0000 C   0  0  0  0  0  0  0  0  0  0  0  0
    8.6603    1.5000   -0.0000 C   0  0  0  0  0  0  0  0  0  0  0  0
    6.9282    2.5000   -0.0000 C   0  0  0  0  0  0  0  0  0  0  0  0
    7.7942    1.0000   -0.0000 C   0  0  0  0  0  0  0  0  0  0  0  0
    6.9282    1.5000   -0.0000 C   0  0  0  0  0  0  0  0  0  0  0  0
    6.0622    1.0000   -0.0000 C   0  0  0  0  0  0  0  0  0  0  0  0
    5.1962    1.5000   -0.0000 N   0  0  0  0  0  0  0  0  0  0  0  0
    6.0622   -0.0000   -0.0000 C   0  0  0  0  0  0  0  0  0  0  0  0
    4.3301    1.0000   -0.0000 N   0  0  0  0  0  0  0  0  0  0  0  0
    5.1962   -0.5000   -0.0000 N   0  0  0  0  0  0  0  0  0  0  0  0
    6.9282   -0.5000   -0.0000 C   0  0  0  0  0  0  0  0  0  0  0  0
    4.3301   -0.0000   -0.0000 C   0  0  0  0  0  0  0  0  0  0  0  0
    6.9282   -1.5000   -0.0000 C   0  0  0  0  0  0  0  0  0  0  0  0
    7.7942   -0.0000   -0.0000 C   0  0  0  0  0  0  0  0  0  0  0  0
    3.4641   -0.5000   -0.0000 S   0  0  0  0  0  0  0  0  0  0  0  0
    7.7942   -2.0000   -0.0000 C   0  0  0  0  0  0  0  0  0  0  0  0
    8.6603   -0.5000   -0.0000 C   0  0  0  0  0  0  0  0  0  0  0  0
    2.5981   -0.0000   -0.0000 C   0  0  0  0  0  0  0  0  0  0  0  0
    8.6603   -1.5000   -0.0000 C   0  0  0  0  0  0  0  0  0  0  0  0
    1.7321   -0.5000   -0.0000 C   0  0  0  0  0  0  0  0  0  0  0  0
    9.5263   -2.0000   -0.0000 Br  0  0  0  0  0  0  0  0  0  0  0  0
    1.7321   -1.5000   -0.0000 O   0  0  0  0  0  0  0  0  0  0  0  0
    0.8660   -0.0000   -0.0000 N   0  0  0  0  0  0  0  0  0  0  0  0
    0.0000   -0.5000   -0.0000 C   0  0  0  0  0  0  0  0  0  0  0  0
   -0.9135   -0.0933   -0.0000 S   0  0  0  0  0  0  0  0  0  0  0  0
   -0.1045   -1.4945   -0.0000 N   0  0  0  0  0  0  0  0  0  0  0  0
   -1.5827   -0.8364   -0.0000 C   0  0  0  0  0  0  0  0  0  0  0  0
   -1.0827   -1.7024   -0.0000 C   0  0  0  0  0  0  0  0  0  0  0  0
   -1.4894   -2.6160   -0.0000 C   0  0  0  0  0  0  0  0  0  0  0  0
   -2.4839   -2.7205   -0.0000 C   0  0  0  0  0  0  0  0  0  0  0  0
   -0.9016   -3.4250   -0.0000 C   0  0  0  0  0  0  0  0  0  0  0  0
   -2.8907   -3.6341   -0.0000 C   0  0  0  0  0  0  0  0  0  0  0  0
   -1.3084   -4.3385   -0.0000 C   0  0  0  0  0  0  0  0  0  0  0  0
   -2.3029   -4.4431   -0.0000 C   0  0  0  0  0  0  0  0  0  0  0  0
   -2.7096   -5.3566   -0.0000 O   0  0  0  0  0  0  0  0  0  0  0  0
   -2.1218   -6.1656   -0.0000 C   0  0  0  0  0  0  0  0  0  0  0  0
  1  2  1  0  0  0  0
  2  3  2  0  0  0  0
  2  4  1  0  0  0  0
  3  5  1  0  0  0  0
  4  6  2  0  0  0  0
  5  7  2  0  0  0  0
  7  8  1  0  0  0  0
  8  9  2  0  0  0  0
  8 10  1  0  0  0  0
  9 11  1  0  0  0  0
 10 12  2  0  0  0  0
 10 13  1  0  0  0  0
 11 14  2  0  0  0  0
 13 15  2  0  0  0  0
 13 16  1  0  0  0  0
 14 17  1  0  0  0  0
 15 18  1  0  0  0  0
 16 19  2  0  0  0  0
 17 20  1  0  0  0  0
 18 21  2  0  0  0  0
 20 22  1  0  0  0  0
 21 23  1  0  0  0  0
 22 24  2  0  0  0  0
 22 25  1  0  0  0  0
 25 26  1  0  0  0  0
 26 27  1  0  0  0  0
 26 28  2  0  0  0  0
 27 29  1  0  0  0  0
 28 30  1  0  0  0  0
 30 31  1  0  0  0  0
 31 32  2  0  0  0  0
 31 33  1  0  0  0  0
 32 34  1  0  0  0  0
 33 35  2  0  0  0  0
 34 36  2  0  0  0  0
 36 37  1  0  0  0  0
 37 38  1  0  0  0  0
  6  7  1  0  0  0  0
 12 14  1  0  0  0  0
 19 21  1  0  0  0  0
 29 30  2  0  0  0  0
 35 36  1  0  0  0  0
M  END
>  <S/N>
418

>  <Compound ID>
C_435

>  <PubChem CID>
155522925

>  <Isomeric SMILES>
COC1=CC=C(C=C1)C2=CSC(=N2)NC(=O)CSC3=NC(=C(N=N3)C4=CC=C(C=C4)Br)C5=CC=C(C=C5)Br

>  <IC50 (�M)>
2.8

>  <pIC50>
5.55

$$$$
C_436
Actelion Java MolfileCreator 1.0

 67 76  0  0  0  0  0  0  0  0999 V2000
    3.4641   -1.5000   -0.0000 Cl  0  0  0  0  0  0  0  0  0  0  0  0
    2.5981   -2.0000   -0.0000 C   0  0  0  0  0  0  0  0  0  0  0  0
    1.7321   -1.5000   -0.0000 C   0  0  0  0  0  0  0  0  0  0  0  0
    2.5981   -3.0000   -0.0000 C   0  0  0  0  0  0  0  0  0  0  0  0
    0.8660   -2.0000   -0.0000 C   0  0  0  0  0  0  0  0  0  0  0  0
    1.7321   -0.5000   -0.0000 C   0  0  0  0  0  0  0  0  0  0  0  0
    1.7321   -3.5000   -0.0000 C   0  0  0  0  0  0  0  0  0  0  0  0
    0.8660   -3.0000   -0.0000 C   0  0  0  0  0  0  0  0  0  0  0  0
    2.5981   -0.0000   -0.0000 N   0  0  0  0  0  0  0  0  0  0  0  0
    0.8660   -0.0000   -0.0000 N   0  0  0  0  0  0  0  0  0  0  0  0
    1.7321   -4.5000   -0.0000 Cl  0  0  0  0  0  0  0  0  0  0  0  0
    3.5116   -0.4067   -0.0000 N   0  0  0  0  0  0  0  0  0  0  0  0
    2.7026    0.9945   -0.0000 C   0  0  0  0  0  0  0  0  0  0  0  0
    0.0000   -0.5000   -0.0000 C   0  0  0  0  0  0  0  0  0  0  0  0
    4.1808    0.3364   -0.0000 C   0  0  0  0  0  0  0  0  0  0  0  0
    1.9595    1.6637   -0.0000 S   0  0  0  0  0  0  0  0  0  0  0  0
    3.6808    1.2024   -0.0000 O   0  0  0  0  0  0  0  0  0  0  0  0
   -0.8660    0.0000   -0.0000 C   0  0  0  0  0  0  0  0  0  0  0  0
   -0.0000   -1.5000   -0.0000 C   0  0  0  0  0  0  0  0  0  0  0  0
    5.1753    0.2319   -0.0000 C   0  0  0  0  0  0  0  0  0  0  0  0
   -1.7321   -0.5000   -0.0000 C   0  0  0  0  0  0  0  0  0  0  0  0
   -0.8660   -2.0000   -0.0000 C   0  0  0  0  0  0  0  0  0  0  0  0
    5.7631    1.0409   -0.0000 C   0  0  0  0  0  0  0  0  0  0  0  0
    5.5820   -0.6817   -0.0000 C   0  0  0  0  0  0  0  0  0  0  0  0
   -1.7321   -1.5000   -0.0000 C   0  0  0  0  0  0  0  0  0  0  0  0
    5.3563    1.9544   -0.0000 O   0  0  0  0  0  0  0  0  0  0  0  0
    6.7576    0.9364   -0.0000 O   0  0  0  0  0  0  0  0  0  0  0  0
    6.5765   -0.7862   -0.0000 C   0  0  0  0  0  0  0  0  0  0  0  0
   -2.5981   -2.0000   -0.0000 O   0  0  0  0  0  0  0  0  0  0  0  0
    7.1643    0.0228   -0.0000 C   0  0  0  0  0  0  0  0  0  0  0  0
    6.9833   -1.6997   -0.0000 C   0  0  0  0  0  0  0  0  0  0  0  0
   -2.5981   -3.0000   -0.0000 C   0  0  0  0  0  0  0  0  0  0  0  0
    8.1588   -0.0817   -0.0000 C   0  0  0  0  0  0  0  0  0  0  0  0
    7.9778   -1.8043   -0.0000 C   0  0  0  0  0  0  0  0  0  0  0  0
   -3.4641   -3.5000   -0.0000 C   0  0  0  0  0  0  0  0  0  0  0  0
   -1.7321   -3.5000   -0.0000 C   0  0  0  0  0  0  0  0  0  0  0  0
    8.5656   -0.9953   -0.0000 C   0  0  0  0  0  0  0  0  0  0  0  0
   -3.4641   -4.5000   -0.0000 C   0  0  0  0  0  0  0  0  0  0  0  0
   -1.7321   -4.5000   -0.0000 C   0  0  0  0  0  0  0  0  0  0  0  0
   -2.5981   -5.0000   -0.0000 C   0  0  0  0  0  0  0  0  0  0  0  0
   -2.5981   -6.0000   -0.0000 N   0  0  0  0  0  0  0  0  0  0  0  0
   -3.4641   -6.5000   -0.0000 C   0  0  0  0  0  0  0  0  0  0  0  0
   -4.3301   -6.0000   -0.0000 N   0  0  0  0  0  0  0  0  0  0  0  0
   -3.4641   -7.5000   -0.0000 C   0  0  0  0  0  0  0  0  0  0  0  0
   -4.4347   -5.0055   -0.0000 N   0  0  0  0  0  0  0  0  0  0  0  0
   -5.2437   -6.4067   -0.0000 C   0  0  0  0  0  0  0  0  0  0  0  0
   -2.5981   -8.0000   -0.0000 C   0  0  0  0  0  0  0  0  0  0  0  0
   -4.3301   -8.0000   -0.0000 C   0  0  0  0  0  0  0  0  0  0  0  0
   -5.4128   -4.7976   -0.0000 C   0  0  0  0  0  0  0  0  0  0  0  0
   -5.4516   -7.3849   -0.0000 S   0  0  0  0  0  0  0  0  0  0  0  0
   -5.9128   -5.6636   -0.0000 O   0  0  0  0  0  0  0  0  0  0  0  0
   -1.7321   -7.5000   -0.0000 Cl  0  0  0  0  0  0  0  0  0  0  0  0
   -2.5981   -9.0000   -0.0000 C   0  0  0  0  0  0  0  0  0  0  0  0
   -4.3301   -9.0000   -0.0000 C   0  0  0  0  0  0  0  0  0  0  0  0
   -5.8195   -3.8840   -0.0000 C   0  0  0  0  0  0  0  0  0  0  0  0
   -3.4641   -9.5000   -0.0000 C   0  0  0  0  0  0  0  0  0  0  0  0
   -5.2318   -3.0750   -0.0000 C   0  0  0  0  0  0  0  0  0  0  0  0
   -6.8141   -3.7795   -0.0000 C   0  0  0  0  0  0  0  0  0  0  0  0
   -3.4641  -10.5000   -0.0000 Cl  0  0  0  0  0  0  0  0  0  0  0  0
   -4.2372   -3.1795   -0.0000 O   0  0  0  0  0  0  0  0  0  0  0  0
   -5.6385   -2.1615   -0.0000 O   0  0  0  0  0  0  0  0  0  0  0  0
   -7.2208   -2.8659   -0.0000 C   0  0  0  0  0  0  0  0  0  0  0  0
   -6.6330   -2.0569   -0.0000 C   0  0  0  0  0  0  0  0  0  0  0  0
   -8.2153   -2.7614   -0.0000 C   0  0  0  0  0  0  0  0  0  0  0  0
   -7.0397   -1.1434   -0.0000 C   0  0  0  0  0  0  0  0  0  0  0  0
   -8.6221   -1.8479   -0.0000 C   0  0  0  0  0  0  0  0  0  0  0  0
   -8.0343   -1.0389   -0.0000 C   0  0  0  0  0  0  0  0  0  0  0  0
  1  2  1  0  0  0  0
  2  3  2  0  0  0  0
  2  4  1  0  0  0  0
  3  5  1  0  0  0  0
  3  6  1  0  0  0  0
  4  7  2  0  0  0  0
  5  8  2  0  0  0  0
  6  9  1  0  0  0  0
  6 10  1  0  0  0  0
  7 11  1  0  0  0  0
  9 12  1  0  0  0  0
  9 13  1  0  0  0  0
 10 14  1  0  0  0  0
 12 15  2  0  0  0  0
 13 16  2  0  0  0  0
 13 17  1  0  0  0  0
 14 18  2  0  0  0  0
 14 19  1  0  0  0  0
 15 20  1  0  0  0  0
 18 21  1  0  0  0  0
 19 22  2  0  0  0  0
 20 23  1  0  0  0  0
 20 24  2  0  0  0  0
 21 25  2  0  0  0  0
 23 26  2  0  0  0  0
 23 27  1  0  0  0  0
 24 28  1  0  0  0  0
 25 29  1  0  0  0  0
 27 30  1  0  0  0  0
 28 31  2  0  0  0  0
 29 32  1  0  0  0  0
 30 33  2  0  0  0  0
 31 34  1  0  0  0  0
 32 35  2  0  0  0  0
 32 36  1  0  0  0  0
 33 37  1  0  0  0  0
 35 38  1  0  0  0  0
 36 39  2  0  0  0  0
 38 40  2  0  0  0  0
 40 41  1  0  0  0  0
 41 42  1  0  0  0  0
 42 43  1  0  0  0  0
 42 44  1  0  0  0  0
 43 45  1  0  0  0  0
 43 46  1  0  0  0  0
 44 47  2  0  0  0  0
 44 48  1  0  0  0  0
 45 49  2  0  0  0  0
 46 50  2  0  0  0  0
 46 51  1  0  0  0  0
 47 52  1  0  0  0  0
 47 53  1  0  0  0  0
 48 54  2  0  0  0  0
 49 55  1  0  0  0  0
 53 56  2  0  0  0  0
 55 57  1  0  0  0  0
 55 58  2  0  0  0  0
 56 59  1  0  0  0  0
 57 60  2  0  0  0  0
 57 61  1  0  0  0  0
 58 62  1  0  0  0  0
 61 63  1  0  0  0  0
 62 64  2  0  0  0  0
 63 65  2  0  0  0  0
 64 66  1  0  0  0  0
 65 67  1  0  0  0  0
  7  8  1  0  0  0  0
 15 17  1  0  0  0  0
 22 25  1  0  0  0  0
 28 30  1  0  0  0  0
 34 37  2  0  0  0  0
 39 40  1  0  0  0  0
 49 51  1  0  0  0  0
 54 56  1  0  0  0  0
 62 63  1  0  0  0  0
 66 67  2  0  0  0  0
M  END
>  <S/N>
419

>  <Compound ID>
C_436

>  <PubChem CID>
155523305

>  <Isomeric SMILES>
C1=CC=C2C(=C1)C=C(C(=O)O2)C3=NN(C(=S)O3)C(C4=C(C=C(C=C4)Cl)Cl)NC5=CC=C(C=C5)OC6=CC=C(C=C6)NC(C7=C(C=C(C=C7)Cl)Cl)N8C(=S)OC(=N8)C9=CC1=CC=CC=C1OC9=O

>  <IC50 (�M)>
0.07

>  <pIC50>
7.15

$$$$
C_437
Actelion Java MolfileCreator 1.0

 42 46  0  0  0  0  0  0  0  0999 V2000
    6.9872   -7.1837   -0.0000 O   0  0  0  0  0  0  0  0  0  0  0  0
    5.9927   -7.0792   -0.0000 C   0  0  0  0  0  0  0  0  0  0  0  0
    5.5859   -6.1656   -0.0000 C   0  0  0  0  0  0  0  0  0  0  0  0
    5.4049   -7.8882   -0.0000 C   0  0  0  0  0  0  0  0  0  0  0  0
    4.5914   -6.0611   -0.0000 C   0  0  0  0  0  0  0  0  0  0  0  0
    6.1737   -5.3566   -0.0000 C   0  0  0  0  0  0  0  0  0  0  0  0
    4.4104   -7.7837   -0.0000 C   0  0  0  0  0  0  0  0  0  0  0  0
    5.8116   -8.8017   -0.0000 C   0  0  0  0  0  0  0  0  0  0  0  0
    4.0036   -6.8701   -0.0000 O   0  0  0  0  0  0  0  0  0  0  0  0
    4.1847   -5.1476   -0.0000 C   0  0  0  0  0  0  0  0  0  0  0  0
    7.1682   -5.4611   -0.0000 O   0  0  0  0  0  0  0  0  0  0  0  0
    5.7670   -4.4431   -0.0000 C   0  0  0  0  0  0  0  0  0  0  0  0
    3.8226   -8.5927   -0.0000 C   0  0  0  0  0  0  0  0  0  0  0  0
    5.2238   -9.6108   -0.0000 C   0  0  0  0  0  0  0  0  0  0  0  0
    4.7725   -4.3385   -0.0000 C   0  0  0  0  0  0  0  0  0  0  0  0
    7.7560   -4.6521   -0.0000 C   0  0  0  0  0  0  0  0  0  0  0  0
    4.2293   -9.5062   -0.0000 C   0  0  0  0  0  0  0  0  0  0  0  0
    4.3657   -3.4250   -0.0000 O   0  0  0  0  0  0  0  0  0  0  0  0
    7.3493   -3.7386   -0.0000 O   0  0  0  0  0  0  0  0  0  0  0  0
    8.7506   -4.7567   -0.0000 C   0  0  0  0  0  0  0  0  0  0  0  0
    3.6415  -10.3152   -0.0000 O   0  0  0  0  0  0  0  0  0  0  0  0
    4.9535   -2.6160   -0.0000 C   0  0  0  0  0  0  0  0  0  0  0  0
    4.0483  -11.2288   -0.0000 C   0  0  0  0  0  0  0  0  0  0  0  0
    4.5468   -1.7024   -0.0000 C   0  0  0  0  0  0  0  0  0  0  0  0
    5.0468   -0.8364   -0.0000 N   0  0  0  0  0  0  0  0  0  0  0  0
    3.5686   -1.4945   -0.0000 C   0  0  0  0  0  0  0  0  0  0  0  0
    4.3776   -0.0933   -0.0000 N   0  0  0  0  0  0  0  0  0  0  0  0
    3.4641   -0.5000   -0.0000 N   0  0  0  0  0  0  0  0  0  0  0  0
    2.5981   -0.0000   -0.0000 C   0  0  0  0  0  0  0  0  0  0  0  0
    1.7321   -0.5000   -0.0000 C   0  0  0  0  0  0  0  0  0  0  0  0
    1.7321   -1.5000   -0.0000 O   0  0  0  0  0  0  0  0  0  0  0  0
    0.8660   -0.0000   -0.0000 N   0  0  0  0  0  0  0  0  0  0  0  0
    0.0000   -0.5000   -0.0000 C   0  0  0  0  0  0  0  0  0  0  0  0
   -0.8660    0.0000   -0.0000 C   0  0  0  0  0  0  0  0  0  0  0  0
   -0.0000   -1.5000   -0.0000 C   0  0  0  0  0  0  0  0  0  0  0  0
   -0.8660    1.0000   -0.0000 O   0  0  0  0  0  0  0  0  0  0  0  0
   -1.7321   -0.5000   -0.0000 C   0  0  0  0  0  0  0  0  0  0  0  0
   -0.8660   -2.0000   -0.0000 C   0  0  0  0  0  0  0  0  0  0  0  0
   -1.7321    1.5000   -0.0000 C   0  0  0  0  0  0  0  0  0  0  0  0
   -1.7321   -1.5000   -0.0000 C   0  0  0  0  0  0  0  0  0  0  0  0
   -2.5981   -2.0000   -0.0000 O   0  0  0  0  0  0  0  0  0  0  0  0
   -2.5981   -3.0000   -0.0000 C   0  0  0  0  0  0  0  0  0  0  0  0
  1  2  2  0  0  0  0
  2  3  1  0  0  0  0
  2  4  1  0  0  0  0
  3  5  2  0  0  0  0
  3  6  1  0  0  0  0
  4  7  2  0  0  0  0
  4  8  1  0  0  0  0
  5  9  1  0  0  0  0
  5 10  1  0  0  0  0
  6 11  1  0  0  0  0
  6 12  2  0  0  0  0
  7 13  1  0  0  0  0
  8 14  2  0  0  0  0
 10 15  2  0  0  0  0
 11 16  1  0  0  0  0
 13 17  2  0  0  0  0
 15 18  1  0  0  0  0
 16 19  2  0  0  0  0
 16 20  1  0  0  0  0
 17 21  1  0  0  0  0
 18 22  1  0  0  0  0
 21 23  1  0  0  0  0
 22 24  1  0  0  0  0
 24 25  1  0  0  0  0
 24 26  2  0  0  0  0
 25 27  2  0  0  0  0
 26 28  1  0  0  0  0
 28 29  1  0  0  0  0
 29 30  1  0  0  0  0
 30 31  2  0  0  0  0
 30 32  1  0  0  0  0
 32 33  1  0  0  0  0
 33 34  2  0  0  0  0
 33 35  1  0  0  0  0
 34 36  1  0  0  0  0
 34 37  1  0  0  0  0
 35 38  2  0  0  0  0
 36 39  1  0  0  0  0
 37 40  2  0  0  0  0
 40 41  1  0  0  0  0
 41 42  1  0  0  0  0
  7  9  1  0  0  0  0
 12 15  1  0  0  0  0
 14 17  1  0  0  0  0
 27 28  1  0  0  0  0
 38 40  1  0  0  0  0
M  END
>  <S/N>
420

>  <Compound ID>
C_437

>  <PubChem CID>
155524062

>  <Isomeric SMILES>
CC(=O)OC1=CC(=CC2=C1C(=O)C3=C(O2)C=C(C=C3)OC)OCC4=CN(N=N4)CC(=O)NC5=C(C=C(C=C5)OC)OC

>  <IC50 (�M)>
33.16

>  <pIC50>
4.48

$$$$
C_438
Actelion Java MolfileCreator 1.0

 42 46  0  0  0  0  0  0  0  0999 V2000
    6.9872   -7.1837   -0.0000 O   0  0  0  0  0  0  0  0  0  0  0  0
    5.9927   -7.0792   -0.0000 C   0  0  0  0  0  0  0  0  0  0  0  0
    5.5859   -6.1656   -0.0000 C   0  0  0  0  0  0  0  0  0  0  0  0
    5.4049   -7.8882   -0.0000 C   0  0  0  0  0  0  0  0  0  0  0  0
    4.5914   -6.0611   -0.0000 C   0  0  0  0  0  0  0  0  0  0  0  0
    6.1737   -5.3566   -0.0000 C   0  0  0  0  0  0  0  0  0  0  0  0
    4.4104   -7.7837   -0.0000 C   0  0  0  0  0  0  0  0  0  0  0  0
    5.8116   -8.8017   -0.0000 C   0  0  0  0  0  0  0  0  0  0  0  0
    4.0036   -6.8701   -0.0000 O   0  0  0  0  0  0  0  0  0  0  0  0
    4.1847   -5.1476   -0.0000 C   0  0  0  0  0  0  0  0  0  0  0  0
    7.1682   -5.4611   -0.0000 O   0  0  0  0  0  0  0  0  0  0  0  0
    5.7670   -4.4431   -0.0000 C   0  0  0  0  0  0  0  0  0  0  0  0
    3.8226   -8.5927   -0.0000 C   0  0  0  0  0  0  0  0  0  0  0  0
    5.2238   -9.6108   -0.0000 C   0  0  0  0  0  0  0  0  0  0  0  0
    4.7725   -4.3385   -0.0000 C   0  0  0  0  0  0  0  0  0  0  0  0
    7.7560   -4.6521   -0.0000 C   0  0  0  0  0  0  0  0  0  0  0  0
    4.2293   -9.5062   -0.0000 C   0  0  0  0  0  0  0  0  0  0  0  0
    4.3657   -3.4250   -0.0000 O   0  0  0  0  0  0  0  0  0  0  0  0
    7.3493   -3.7386   -0.0000 O   0  0  0  0  0  0  0  0  0  0  0  0
    8.7506   -4.7567   -0.0000 C   0  0  0  0  0  0  0  0  0  0  0  0
    3.6415  -10.3152   -0.0000 O   0  0  0  0  0  0  0  0  0  0  0  0
    4.9535   -2.6160   -0.0000 C   0  0  0  0  0  0  0  0  0  0  0  0
    4.0483  -11.2288   -0.0000 C   0  0  0  0  0  0  0  0  0  0  0  0
    4.5468   -1.7024   -0.0000 C   0  0  0  0  0  0  0  0  0  0  0  0
    5.0468   -0.8364   -0.0000 N   0  0  0  0  0  0  0  0  0  0  0  0
    3.5686   -1.4945   -0.0000 C   0  0  0  0  0  0  0  0  0  0  0  0
    4.3776   -0.0933   -0.0000 N   0  0  0  0  0  0  0  0  0  0  0  0
    3.4641   -0.5000   -0.0000 N   0  0  0  0  0  0  0  0  0  0  0  0
    2.5981   -0.0000   -0.0000 C   0  0  0  0  0  0  0  0  0  0  0  0
    1.7321   -0.5000   -0.0000 C   0  0  0  0  0  0  0  0  0  0  0  0
    1.7321   -1.5000   -0.0000 O   0  0  0  0  0  0  0  0  0  0  0  0
    0.8660   -0.0000   -0.0000 N   0  0  0  0  0  0  0  0  0  0  0  0
    0.0000   -0.5000   -0.0000 C   0  0  0  0  0  0  0  0  0  0  0  0
   -0.8660    0.0000   -0.0000 C   0  0  0  0  0  0  0  0  0  0  0  0
   -0.0000   -1.5000   -0.0000 C   0  0  0  0  0  0  0  0  0  0  0  0
   -1.7321   -0.5000   -0.0000 C   0  0  0  0  0  0  0  0  0  0  0  0
   -0.8660   -2.0000   -0.0000 C   0  0  0  0  0  0  0  0  0  0  0  0
   -2.5981    0.0000   -0.0000 O   0  0  0  0  0  0  0  0  0  0  0  0
   -1.7321   -1.5000   -0.0000 C   0  0  0  0  0  0  0  0  0  0  0  0
   -3.4641   -0.5000   -0.0000 C   0  0  0  0  0  0  0  0  0  0  0  0
   -2.5981   -2.0000   -0.0000 O   0  0  0  0  0  0  0  0  0  0  0  0
   -2.5981   -3.0000   -0.0000 C   0  0  0  0  0  0  0  0  0  0  0  0
  1  2  2  0  0  0  0
  2  3  1  0  0  0  0
  2  4  1  0  0  0  0
  3  5  2  0  0  0  0
  3  6  1  0  0  0  0
  4  7  2  0  0  0  0
  4  8  1  0  0  0  0
  5  9  1  0  0  0  0
  5 10  1  0  0  0  0
  6 11  1  0  0  0  0
  6 12  2  0  0  0  0
  7 13  1  0  0  0  0
  8 14  2  0  0  0  0
 10 15  2  0  0  0  0
 11 16  1  0  0  0  0
 13 17  2  0  0  0  0
 15 18  1  0  0  0  0
 16 19  2  0  0  0  0
 16 20  1  0  0  0  0
 17 21  1  0  0  0  0
 18 22  1  0  0  0  0
 21 23  1  0  0  0  0
 22 24  1  0  0  0  0
 24 25  1  0  0  0  0
 24 26  2  0  0  0  0
 25 27  2  0  0  0  0
 26 28  1  0  0  0  0
 28 29  1  0  0  0  0
 29 30  1  0  0  0  0
 30 31  2  0  0  0  0
 30 32  1  0  0  0  0
 32 33  1  0  0  0  0
 33 34  2  0  0  0  0
 33 35  1  0  0  0  0
 34 36  1  0  0  0  0
 35 37  2  0  0  0  0
 36 38  1  0  0  0  0
 36 39  2  0  0  0  0
 38 40  1  0  0  0  0
 39 41  1  0  0  0  0
 41 42  1  0  0  0  0
  7  9  1  0  0  0  0
 12 15  1  0  0  0  0
 14 17  1  0  0  0  0
 27 28  1  0  0  0  0
 37 39  1  0  0  0  0
M  END
>  <S/N>
421

>  <Compound ID>
C_438

>  <PubChem CID>
155524159

>  <Isomeric SMILES>
CC(=O)OC1=CC(=CC2=C1C(=O)C3=C(O2)C=C(C=C3)OC)OCC4=CN(N=N4)CC(=O)NC5=CC(=C(C=C5)OC)OC

>  <IC50 (�M)>
98.63

>  <pIC50>
4.01

$$$$
C_439
Actelion Java MolfileCreator 1.0

 42 49  0  0  0  0  0  0  0  0999 V2000
    0.8073   -3.9319   -0.0000 Br  0  0  0  0  0  0  0  0  0  0  0  0
    1.4765   -3.1887   -0.0000 C   0  0  0  0  0  0  0  0  0  0  0  0
    1.1674   -2.2377   -0.0000 C   0  0  0  0  0  0  0  0  0  0  0  0
    2.4546   -3.3966   -0.0000 C   0  0  0  0  0  0  0  0  0  0  0  0
    1.8366   -1.4945   -0.0000 C   0  0  0  0  0  0  0  0  0  0  0  0
    3.1237   -2.6535   -0.0000 C   0  0  0  0  0  0  0  0  0  0  0  0
    2.8147   -1.7024   -0.0000 C   0  0  0  0  0  0  0  0  0  0  0  0
    1.7321   -0.5000   -0.0000 C   0  0  0  0  0  0  0  0  0  0  0  0
    3.3147   -0.8364   -0.0000 N   0  0  0  0  0  0  0  0  0  0  0  0
    2.6456   -0.0933   -0.0000 C   0  0  0  0  0  0  0  0  0  0  0  0
    0.8660   -0.0000   -0.0000 C   0  0  0  0  0  0  0  0  0  0  0  0
    0.8660    1.0000   -0.0000 C   0  0  0  0  0  0  0  0  0  0  0  0
    0.0000   -0.5000   -0.0000 C   0  0  0  0  0  0  0  0  0  0  0  0
    1.7321    1.5000   -0.0000 C   0  0  0  0  0  0  0  0  0  0  0  0
    0.0000    1.5000   -0.0000 C   0  0  0  0  0  0  0  0  0  0  0  0
   -0.9135   -0.0933   -0.0000 C   0  0  0  0  0  0  0  0  0  0  0  0
   -0.1045   -1.4945   -0.0000 C   0  0  0  0  0  0  0  0  0  0  0  0
    1.7321    2.5000   -0.0000 C   0  0  0  0  0  0  0  0  0  0  0  0
    0.0000    2.5000   -0.0000 C   0  0  0  0  0  0  0  0  0  0  0  0
   -1.5827   -0.8364   -0.0000 C   0  0  0  0  0  0  0  0  0  0  0  0
   -1.2226    0.8578   -0.0000 C   0  0  0  0  0  0  0  0  0  0  0  0
   -1.0827   -1.7024   -0.0000 N   0  0  0  0  0  0  0  0  0  0  0  0
    0.8660    3.0000   -0.0000 C   0  0  0  0  0  0  0  0  0  0  0  0
   -2.5608   -0.6285   -0.0000 C   0  0  0  0  0  0  0  0  0  0  0  0
   -2.2007    1.0657   -0.0000 C   0  0  0  0  0  0  0  0  0  0  0  0
    0.8660    4.0000   -0.0000 C   0  0  0  0  0  0  0  0  0  0  0  0
   -2.8698    0.3226   -0.0000 C   0  0  0  0  0  0  0  0  0  0  0  0
   -2.5097    2.0168   -0.0000 Br  0  0  0  0  0  0  0  0  0  0  0  0
    1.6750    4.5878   -0.0000 O   0  0  0  0  0  0  0  0  0  0  0  0
    0.0570    4.5878   -0.0000 N   0  0  0  0  0  0  0  0  0  0  0  0
    1.3660    5.5388   -0.0000 C   0  0  0  0  0  0  0  0  0  0  0  0
    0.3660    5.5388   -0.0000 N   0  0  0  0  0  0  0  0  0  0  0  0
    1.9538    6.3479   -0.0000 C   0  0  0  0  0  0  0  0  0  0  0  0
    2.9538    6.3479   -0.0000 C   0  0  0  0  0  0  0  0  0  0  0  0
    1.6448    7.2989   -0.0000 C   0  0  0  0  0  0  0  0  0  0  0  0
    3.2628    7.2989   -0.0000 C   0  0  0  0  0  0  0  0  0  0  0  0
    3.6229    5.6047   -0.0000 C   0  0  0  0  0  0  0  0  0  0  0  0
    2.4538    7.8867   -0.0000 N   0  0  0  0  0  0  0  0  0  0  0  0
    0.6937    7.6079   -0.0000 C   0  0  0  0  0  0  0  0  0  0  0  0
    4.2410    7.5068   -0.0000 C   0  0  0  0  0  0  0  0  0  0  0  0
    4.6011    5.8126   -0.0000 C   0  0  0  0  0  0  0  0  0  0  0  0
    4.9101    6.7637   -0.0000 C   0  0  0  0  0  0  0  0  0  0  0  0
  1  2  1  0  0  0  0
  2  3  2  0  0  0  0
  2  4  1  0  0  0  0
  3  5  1  0  0  0  0
  4  6  2  0  0  0  0
  5  7  2  0  0  0  0
  5  8  1  0  0  0  0
  7  9  1  0  0  0  0
  8 10  2  0  0  0  0
  8 11  1  0  0  0  0
 11 12  1  0  0  0  0
 11 13  1  0  0  0  0
 12 14  2  0  0  0  0
 12 15  1  0  0  0  0
 13 16  1  0  0  0  0
 13 17  2  0  0  0  0
 14 18  1  0  0  0  0
 15 19  2  0  0  0  0
 16 20  2  0  0  0  0
 16 21  1  0  0  0  0
 17 22  1  0  0  0  0
 18 23  2  0  0  0  0
 20 24  1  0  0  0  0
 21 25  2  0  0  0  0
 23 26  1  0  0  0  0
 24 27  2  0  0  0  0
 25 28  1  0  0  0  0
 26 29  1  0  0  0  0
 26 30  2  0  0  0  0
 29 31  1  0  0  0  0
 30 32  1  0  0  0  0
 31 33  1  0  0  0  0
 33 34  1  0  0  0  0
 33 35  2  0  0  0  0
 34 36  2  0  0  0  0
 34 37  1  0  0  0  0
 35 38  1  0  0  0  0
 35 39  1  0  0  0  0
 36 40  1  0  0  0  0
 37 41  2  0  0  0  0
 40 42  2  0  0  0  0
  6  7  1  0  0  0  0
  9 10  1  0  0  0  0
 19 23  1  0  0  0  0
 20 22  1  0  0  0  0
 25 27  1  0  0  0  0
 31 32  2  0  0  0  0
 36 38  1  0  0  0  0
 41 42  1  0  0  0  0
M  END
>  <S/N>
422

>  <Compound ID>
C_439

>  <PubChem CID>
155524260

>  <Isomeric SMILES>
CC1=C(C2=CC=CC=C2N1)C3=NN=C(O3)C4=CC=C(C=C4)C(C5=CNC6=C5C=C(C=C6)Br)C7=CNC8=C7C=C(C=C8)Br

>  <IC50 (�M)>
20

>  <pIC50>
4.7

$$$$
C_440
Actelion Java MolfileCreator 1.0

 29 32  0  0  0  0  0  0  0  0999 V2000
    3.4641    5.5000   -0.0000 Br  0  0  0  0  0  0  0  0  0  0  0  0
    3.4641    4.5000   -0.0000 C   0  0  0  0  0  0  0  0  0  0  0  0
    2.5981    4.0000   -0.0000 C   0  0  0  0  0  0  0  0  0  0  0  0
    4.3301    4.0000   -0.0000 C   0  0  0  0  0  0  0  0  0  0  0  0
    2.5981    3.0000   -0.0000 C   0  0  0  0  0  0  0  0  0  0  0  0
    4.3301    3.0000   -0.0000 C   0  0  0  0  0  0  0  0  0  0  0  0
    3.4641    2.5000   -0.0000 C   0  0  0  0  0  0  0  0  0  0  0  0
    3.4641    1.5000   -0.0000 C   0  0  0  0  0  0  0  0  0  0  0  0
    2.5981    1.0000   -0.0000 N   0  0  0  0  0  0  0  0  0  0  0  0
    4.3301    1.0000   -0.0000 C   0  0  0  0  0  0  0  0  0  0  0  0
    2.5981   -0.0000   -0.0000 C   0  0  0  0  0  0  0  0  0  0  0  0
    4.3301   -0.0000   -0.0000 C   0  0  0  0  0  0  0  0  0  0  0  0
    1.7321   -0.5000   -0.0000 S   0  0  0  0  0  0  0  0  0  0  0  0
    3.4641   -0.5000   -0.0000 N   0  0  0  0  0  0  0  0  0  0  0  0
    5.1962   -0.5000   -0.0000 C   0  0  0  0  0  0  0  0  0  0  0  0
    0.8660   -0.0000   -0.0000 C   0  0  0  0  0  0  0  0  0  0  0  0
    5.1962   -1.5000   -0.0000 C   0  0  0  0  0  0  0  0  0  0  0  0
    6.0622   -0.0000   -0.0000 C   0  0  0  0  0  0  0  0  0  0  0  0
    0.0000   -0.5000   -0.0000 C   0  0  0  0  0  0  0  0  0  0  0  0
    6.0622   -2.0000   -0.0000 C   0  0  0  0  0  0  0  0  0  0  0  0
    6.9282   -0.5000   -0.0000 C   0  0  0  0  0  0  0  0  0  0  0  0
   -0.8660    0.0000   -0.0000 C   0  0  0  0  0  0  0  0  0  0  0  0
   -0.0000   -1.5000   -0.0000 C   0  0  0  0  0  0  0  0  0  0  0  0
    6.9282   -1.5000   -0.0000 C   0  0  0  0  0  0  0  0  0  0  0  0
   -1.7321   -0.5000   -0.0000 C   0  0  0  0  0  0  0  0  0  0  0  0
   -0.8660   -2.0000   -0.0000 C   0  0  0  0  0  0  0  0  0  0  0  0
    7.7942   -2.0000   -0.0000 Br  0  0  0  0  0  0  0  0  0  0  0  0
   -1.7321   -1.5000   -0.0000 C   0  0  0  0  0  0  0  0  0  0  0  0
   -2.5981   -2.0000   -0.0000 F   0  0  0  0  0  0  0  0  0  0  0  0
  1  2  1  0  0  0  0
  2  3  2  0  0  0  0
  2  4  1  0  0  0  0
  3  5  1  0  0  0  0
  4  6  2  0  0  0  0
  5  7  2  0  0  0  0
  7  8  1  0  0  0  0
  8  9  2  0  0  0  0
  8 10  1  0  0  0  0
  9 11  1  0  0  0  0
 10 12  2  0  0  0  0
 11 13  1  0  0  0  0
 11 14  2  0  0  0  0
 12 15  1  0  0  0  0
 13 16  1  0  0  0  0
 15 17  2  0  0  0  0
 15 18  1  0  0  0  0
 16 19  1  0  0  0  0
 17 20  1  0  0  0  0
 18 21  2  0  0  0  0
 19 22  2  0  0  0  0
 19 23  1  0  0  0  0
 20 24  2  0  0  0  0
 22 25  1  0  0  0  0
 23 26  2  0  0  0  0
 24 27  1  0  0  0  0
 25 28  2  0  0  0  0
 28 29  1  0  0  0  0
  6  7  1  0  0  0  0
 12 14  1  0  0  0  0
 21 24  1  0  0  0  0
 26 28  1  0  0  0  0
M  END
>  <S/N>
423

>  <Compound ID>
C_440

>  <PubChem CID>
155524303

>  <Isomeric SMILES>
C1=CC(=CC=C1CSC2=NC(=CC(=N2)C3=CC=C(C=C3)Br)C4=CC=C(C=C4)Br)F

>  <IC50 (�M)>
19

>  <pIC50>
4.72

$$$$
C_441
Actelion Java MolfileCreator 1.0

 28 31  0  0  0  0  0  0  0  0999 V2000
   -0.4060    5.5213   -0.0000 Cl  0  0  0  0  0  0  0  0  0  0  0  0
    0.7117    4.5149   -0.0000 C   0  0  0  0  0  0  0  0  0  0  0  0
    0.3990    3.0438   -0.0000 C   0  0  0  0  0  0  0  0  0  0  0  0
    2.1421    4.9797   -0.0000 C   0  0  0  0  0  0  0  0  0  0  0  0
   -1.0315    2.5790   -0.0000 Cl  0  0  0  0  0  0  0  0  0  0  0  0
    1.5332    2.0785   -0.0000 C   0  0  0  0  0  0  0  0  0  0  0  0
    3.2598    3.9733   -0.0000 C   0  0  0  0  0  0  0  0  0  0  0  0
    2.9471    2.5022   -0.0000 C   0  0  0  0  0  0  0  0  0  0  0  0
    4.6902    4.4381   -0.0000 Cl  0  0  0  0  0  0  0  0  0  0  0  0
    4.0648    1.4958   -0.0000 N   0  0  0  0  0  0  0  0  0  0  0  0
    3.9076   -0.0000   -0.0000 C   0  0  0  0  0  0  0  0  0  0  0  0
    5.5359    1.8085   -0.0000 C   0  0  0  0  0  0  0  0  0  0  0  0
    5.2815   -0.6117   -0.0000 S   0  0  0  0  0  0  0  0  0  0  0  0
    2.6050   -0.7520   -0.0000 N   0  0  0  0  0  0  0  0  0  0  0  0
    6.2879    0.5060   -0.0000 C   0  0  0  0  0  0  0  0  0  0  0  0
    6.1477    3.1825   -0.0000 C   0  0  0  0  0  0  0  0  0  0  0  0
    1.3025   -0.0000   -0.0000 C   0  0  0  0  0  0  0  0  0  0  0  0
    1.2695    1.4218   -0.0000 O   0  0  0  0  0  0  0  0  0  0  0  0
   -0.0000   -0.7520   -0.0000 C   0  0  0  0  0  0  0  0  0  0  0  0
    0.0000   -2.2560   -0.0000 C   0  0  0  0  0  0  0  0  0  0  0  0
   -1.3025   -0.0000   -0.0000 C   0  0  0  0  0  0  0  0  0  0  0  0
   -1.3025   -3.0080   -0.0000 C   0  0  0  0  0  0  0  0  0  0  0  0
    1.3025   -3.0080   -0.0000 C   0  0  0  0  0  0  0  0  0  0  0  0
   -2.6050   -0.7520   -0.0000 C   0  0  0  0  0  0  0  0  0  0  0  0
   -2.6050   -2.2560   -0.0000 C   0  0  0  0  0  0  0  0  0  0  0  0
   -1.3025   -4.5121   -0.0000 C   0  0  0  0  0  0  0  0  0  0  0  0
    1.3025   -4.5121   -0.0000 C   0  0  0  0  0  0  0  0  0  0  0  0
    0.0000   -5.2641   -0.0000 C   0  0  0  0  0  0  0  0  0  0  0  0
  1  2  1  0  0  0  0
  2  3  2  0  0  0  0
  2  4  1  0  0  0  0
  3  5  1  0  0  0  0
  3  6  1  0  0  0  0
  4  7  2  0  0  0  0
  6  8  2  0  0  0  0
  7  9  1  0  0  0  0
  8 10  1  0  0  0  0
 10 11  1  0  0  0  0
 10 12  1  0  0  0  0
 11 13  1  0  0  0  0
 11 14  2  3  0  0  0
 12 15  2  0  0  0  0
 12 16  1  0  0  0  0
 14 17  1  0  0  0  0
 17 18  2  0  0  0  0
 17 19  1  0  0  0  0
 19 20  1  0  0  0  0
 19 21  2  0  0  0  0
 20 22  2  0  0  0  0
 20 23  1  0  0  0  0
 21 24  1  0  0  0  0
 22 25  1  0  0  0  0
 22 26  1  0  0  0  0
 23 27  2  0  0  0  0
 26 28  2  0  0  0  0
  7  8  1  0  0  0  0
 13 15  1  0  0  0  0
 24 25  2  0  0  0  0
 27 28  1  0  0  0  0
M  END
>  <S/N>
424

>  <Compound ID>
C_441

>  <PubChem CID>
155524371

>  <Isomeric SMILES>
CC1=CSC(=NC(=O)C2=CC=CC3=CC=CC=C32)N1C4=CC(=C(C=C4Cl)Cl)Cl

>  <IC50 (�M)>
0.15

>  <pIC50>
6.82

$$$$
C_442
Actelion Java MolfileCreator 1.0

 38 42  0  0  0  0  0  0  0  0999 V2000
    5.6306  -10.5243   -0.0000 Br  0  0  0  0  0  0  0  0  0  0  0  0
    5.2238   -9.6108   -0.0000 C   0  0  0  0  0  0  0  0  0  0  0  0
    5.8116   -8.8017   -0.0000 C   0  0  0  0  0  0  0  0  0  0  0  0
    4.2293   -9.5062   -0.0000 C   0  0  0  0  0  0  0  0  0  0  0  0
    5.4049   -7.8882   -0.0000 C   0  0  0  0  0  0  0  0  0  0  0  0
    3.8226   -8.5927   -0.0000 C   0  0  0  0  0  0  0  0  0  0  0  0
    5.9927   -7.0792   -0.0000 C   0  0  0  0  0  0  0  0  0  0  0  0
    4.4104   -7.7837   -0.0000 C   0  0  0  0  0  0  0  0  0  0  0  0
    6.9872   -7.1837   -0.0000 O   0  0  0  0  0  0  0  0  0  0  0  0
    5.5859   -6.1656   -0.0000 C   0  0  0  0  0  0  0  0  0  0  0  0
    4.0036   -6.8701   -0.0000 O   0  0  0  0  0  0  0  0  0  0  0  0
    4.5914   -6.0611   -0.0000 C   0  0  0  0  0  0  0  0  0  0  0  0
    6.1737   -5.3566   -0.0000 C   0  0  0  0  0  0  0  0  0  0  0  0
    4.1847   -5.1476   -0.0000 C   0  0  0  0  0  0  0  0  0  0  0  0
    7.1682   -5.4611   -0.0000 O   0  0  0  0  0  0  0  0  0  0  0  0
    5.7670   -4.4431   -0.0000 C   0  0  0  0  0  0  0  0  0  0  0  0
    4.7725   -4.3385   -0.0000 C   0  0  0  0  0  0  0  0  0  0  0  0
    4.3657   -3.4250   -0.0000 O   0  0  0  0  0  0  0  0  0  0  0  0
    4.9535   -2.6160   -0.0000 C   0  0  0  0  0  0  0  0  0  0  0  0
    4.5468   -1.7024   -0.0000 C   0  0  0  0  0  0  0  0  0  0  0  0
    5.0468   -0.8364   -0.0000 N   0  0  0  0  0  0  0  0  0  0  0  0
    3.5686   -1.4945   -0.0000 C   0  0  0  0  0  0  0  0  0  0  0  0
    4.3776   -0.0933   -0.0000 N   0  0  0  0  0  0  0  0  0  0  0  0
    3.4641   -0.5000   -0.0000 N   0  0  0  0  0  0  0  0  0  0  0  0
    2.5981   -0.0000   -0.0000 C   0  0  0  0  0  0  0  0  0  0  0  0
    1.7321   -0.5000   -0.0000 C   0  0  0  0  0  0  0  0  0  0  0  0
    1.7321   -1.5000   -0.0000 O   0  0  0  0  0  0  0  0  0  0  0  0
    0.8660   -0.0000   -0.0000 N   0  0  0  0  0  0  0  0  0  0  0  0
    0.0000   -0.5000   -0.0000 C   0  0  0  0  0  0  0  0  0  0  0  0
   -0.8660    0.0000   -0.0000 C   0  0  0  0  0  0  0  0  0  0  0  0
   -0.0000   -1.5000   -0.0000 C   0  0  0  0  0  0  0  0  0  0  0  0
   -1.7321   -0.5000   -0.0000 C   0  0  0  0  0  0  0  0  0  0  0  0
   -0.8660   -2.0000   -0.0000 C   0  0  0  0  0  0  0  0  0  0  0  0
   -2.5981    0.0000   -0.0000 O   0  0  0  0  0  0  0  0  0  0  0  0
   -1.7321   -1.5000   -0.0000 C   0  0  0  0  0  0  0  0  0  0  0  0
   -3.4641   -0.5000   -0.0000 C   0  0  0  0  0  0  0  0  0  0  0  0
   -2.5981   -2.0000   -0.0000 O   0  0  0  0  0  0  0  0  0  0  0  0
   -2.5981   -3.0000   -0.0000 C   0  0  0  0  0  0  0  0  0  0  0  0
  1  2  1  0  0  0  0
  2  3  2  0  0  0  0
  2  4  1  0  0  0  0
  3  5  1  0  0  0  0
  4  6  2  0  0  0  0
  5  7  1  0  0  0  0
  5  8  2  0  0  0  0
  7  9  2  0  0  0  0
  7 10  1  0  0  0  0
  8 11  1  0  0  0  0
 10 12  2  0  0  0  0
 10 13  1  0  0  0  0
 12 14  1  0  0  0  0
 13 15  1  0  0  0  0
 13 16  2  0  0  0  0
 14 17  2  0  0  0  0
 17 18  1  0  0  0  0
 18 19  1  0  0  0  0
 19 20  1  0  0  0  0
 20 21  1  0  0  0  0
 20 22  2  0  0  0  0
 21 23  2  0  0  0  0
 22 24  1  0  0  0  0
 24 25  1  0  0  0  0
 25 26  1  0  0  0  0
 26 27  2  0  0  0  0
 26 28  1  0  0  0  0
 28 29  1  0  0  0  0
 29 30  2  0  0  0  0
 29 31  1  0  0  0  0
 30 32  1  0  0  0  0
 31 33  2  0  0  0  0
 32 34  1  0  0  0  0
 32 35  2  0  0  0  0
 34 36  1  0  0  0  0
 35 37  1  0  0  0  0
 37 38  1  0  0  0  0
  6  8  1  0  0  0  0
 11 12  1  0  0  0  0
 16 17  1  0  0  0  0
 23 24  1  0  0  0  0
 33 35  1  0  0  0  0
M  END
>  <S/N>
425

>  <Compound ID>
C_442

>  <PubChem CID>
155524800

>  <Isomeric SMILES>
COC1=C(C=C(C=C1)NC(=O)CN2C=C(N=N2)COC3=CC(=C4C(=C3)OC5=C(C4=O)C=C(C=C5)Br)O)OC

>  <IC50 (�M)>
29.84

>  <pIC50>
4.53

$$$$
C_443
Actelion Java MolfileCreator 1.0

 37 41  0  0  0  0  0  0  0  0999 V2000
    4.3776   -0.0933   -0.0000 S   0  0  0  0  0  0  0  0  0  0  0  0
    3.4641   -0.5000   -0.0000 C   0  0  0  0  0  0  0  0  0  0  0  0
    5.0468   -0.8364   -0.0000 C   0  0  0  0  0  0  0  0  0  0  0  0
    2.5981   -0.0000   -0.0000 N   0  0  0  0  0  0  0  0  0  0  0  0
    3.5686   -1.4945   -0.0000 N   0  0  0  0  0  0  0  0  0  0  0  0
    4.5468   -1.7024   -0.0000 C   0  0  0  0  0  0  0  0  0  0  0  0
    6.0413   -0.7319   -0.0000 C   0  0  0  0  0  0  0  0  0  0  0  0
    2.5981    1.0000   -0.0000 N   0  0  0  0  0  0  0  0  0  0  0  0
    2.8255   -2.1637   -0.0000 C   0  0  0  0  0  0  0  0  0  0  0  0
    4.9535   -2.6160   -0.0000 O   0  0  0  0  0  0  0  0  0  0  0  0
    6.4480    0.1817   -0.0000 C   0  0  0  0  0  0  0  0  0  0  0  0
    1.7321    1.5000   -0.0000 C   0  0  0  0  0  0  0  0  0  0  0  0
    1.8744   -1.8546   -0.0000 C   0  0  0  0  0  0  0  0  0  0  0  0
    3.0334   -3.1418   -0.0000 C   0  0  0  0  0  0  0  0  0  0  0  0
    7.4426    0.2862   -0.0000 C   0  0  0  0  0  0  0  0  0  0  0  0
    5.8603    0.9907   -0.0000 C   0  0  0  0  0  0  0  0  0  0  0  0
    0.8660    1.0000   -0.0000 O   0  0  0  0  0  0  0  0  0  0  0  0
    1.7321    2.5000   -0.0000 C   0  0  0  0  0  0  0  0  0  0  0  0
    1.1313   -2.5238   -0.0000 C   0  0  0  0  0  0  0  0  0  0  0  0
    2.2903   -3.8109   -0.0000 C   0  0  0  0  0  0  0  0  0  0  0  0
    7.8493    1.1997   -0.0000 C   0  0  0  0  0  0  0  0  0  0  0  0
    6.2670    1.9042   -0.0000 C   0  0  0  0  0  0  0  0  0  0  0  0
    0.8660    3.0000   -0.0000 C   0  0  0  0  0  0  0  0  0  0  0  0
    2.5981    3.0000   -0.0000 C   0  0  0  0  0  0  0  0  0  0  0  0
    1.3392   -3.5019   -0.0000 C   0  0  0  0  0  0  0  0  0  0  0  0
    7.2615    2.0088   -0.0000 C   0  0  0  0  0  0  0  0  0  0  0  0
   -0.0000    2.5000   -0.0000 O   0  0  0  0  0  0  0  0  0  0  0  0
    0.8660    4.0000   -0.0000 O   0  0  0  0  0  0  0  0  0  0  0  0
    2.5981    4.0000   -0.0000 C   0  0  0  0  0  0  0  0  0  0  0  0
    0.5961   -4.1710   -0.0000 O   0  0  0  0  0  0  0  0  0  0  0  0
    7.6682    2.9223   -0.0000 F   0  0  0  0  0  0  0  0  0  0  0  0
    1.7321    4.5000   -0.0000 C   0  0  0  0  0  0  0  0  0  0  0  0
    3.4641    4.5000   -0.0000 C   0  0  0  0  0  0  0  0  0  0  0  0
    0.8040   -5.1492   -0.0000 C   0  0  0  0  0  0  0  0  0  0  0  0
    1.7321    5.5000   -0.0000 C   0  0  0  0  0  0  0  0  0  0  0  0
    3.4641    5.5000   -0.0000 C   0  0  0  0  0  0  0  0  0  0  0  0
    2.5981    6.0000   -0.0000 C   0  0  0  0  0  0  0  0  0  0  0  0
  1  2  1  0  0  0  0
  1  3  1  0  0  0  0
  2  4  2  0  0  0  0
  2  5  1  0  0  0  0
  3  6  1  0  0  0  0
  3  7  2  0  0  0  0
  4  8  1  0  0  0  0
  5  9  1  0  0  0  0
  6 10  2  0  0  0  0
  7 11  1  0  0  0  0
  8 12  1  0  0  0  0
  9 13  2  0  0  0  0
  9 14  1  0  0  0  0
 11 15  2  0  0  0  0
 11 16  1  0  0  0  0
 12 17  2  0  0  0  0
 12 18  1  0  0  0  0
 13 19  1  0  0  0  0
 14 20  2  0  0  0  0
 15 21  1  0  0  0  0
 16 22  2  0  0  0  0
 18 23  1  0  0  0  0
 18 24  2  0  0  0  0
 19 25  2  0  0  0  0
 21 26  2  0  0  0  0
 23 27  2  0  0  0  0
 23 28  1  0  0  0  0
 24 29  1  0  0  0  0
 25 30  1  0  0  0  0
 26 31  1  0  0  0  0
 28 32  1  0  0  0  0
 29 33  2  0  0  0  0
 30 34  1  0  0  0  0
 32 35  2  0  0  0  0
 33 36  1  0  0  0  0
 35 37  1  0  0  0  0
  5  6  1  0  0  0  0
 20 25  1  0  0  0  0
 22 26  1  0  0  0  0
 29 32  1  0  0  0  0
 36 37  2  0  0  0  0
M  END
>  <S/N>
426

>  <Compound ID>
C_443

>  <PubChem CID>
155525398

>  <Isomeric SMILES>
COC1=CC=C(C=C1)N\2C(=O)/C(=C/C3=CC=C(C=C3)F)/S/C2=N\NC(=O)C4=CC5=CC=CC=C5OC4=O

>  <IC50 (�M)>
0.09

>  <pIC50>
7.05

$$$$
C_444
Actelion Java MolfileCreator 1.0

 24 27  0  0  0  0  0  0  0  0999 V2000
    7.1643    0.0228   -0.0000 Br  0  0  0  0  0  0  0  0  0  0  0  0
    6.5765   -0.7862   -0.0000 C   0  0  0  0  0  0  0  0  0  0  0  0
    5.5820   -0.6817   -0.0000 C   0  0  0  0  0  0  0  0  0  0  0  0
    6.9833   -1.6997   -0.0000 C   0  0  0  0  0  0  0  0  0  0  0  0
    4.9942   -1.4907   -0.0000 C   0  0  0  0  0  0  0  0  0  0  0  0
    5.1753    0.2319   -0.0000 C   0  0  0  0  0  0  0  0  0  0  0  0
    6.3955   -2.5088   -0.0000 C   0  0  0  0  0  0  0  0  0  0  0  0
    5.4010   -2.4042   -0.0000 C   0  0  0  0  0  0  0  0  0  0  0  0
    4.1808    0.3364   -0.0000 N   0  0  0  0  0  0  0  0  0  0  0  0
    3.6808    1.2024   -0.0000 N   0  0  0  0  0  0  0  0  0  0  0  0
    3.5116   -0.4067   -0.0000 C   0  0  0  0  0  0  0  0  0  0  0  0
    2.7026    0.9945   -0.0000 N   0  0  0  0  0  0  0  0  0  0  0  0
    2.5981   -0.0000   -0.0000 C   0  0  0  0  0  0  0  0  0  0  0  0
    1.7321   -0.5000   -0.0000 C   0  0  0  0  0  0  0  0  0  0  0  0
    0.8660   -0.0000   -0.0000 S   0  0  0  0  0  0  0  0  0  0  0  0
    0.0000   -0.5000   -0.0000 C   0  0  0  0  0  0  0  0  0  0  0  0
   -0.9135   -0.0933   -0.0000 S   0  0  0  0  0  0  0  0  0  0  0  0
   -0.1045   -1.4945   -0.0000 N   0  0  0  0  0  0  0  0  0  0  0  0
   -1.5827   -0.8364   -0.0000 C   0  0  0  0  0  0  0  0  0  0  0  0
   -1.0827   -1.7024   -0.0000 C   0  0  0  0  0  0  0  0  0  0  0  0
   -2.5827   -0.8364   -0.0000 C   0  0  0  0  0  0  0  0  0  0  0  0
   -1.5827   -2.5685   -0.0000 C   0  0  0  0  0  0  0  0  0  0  0  0
   -3.0827   -1.7024   -0.0000 C   0  0  0  0  0  0  0  0  0  0  0  0
   -2.5827   -2.5685   -0.0000 C   0  0  0  0  0  0  0  0  0  0  0  0
  1  2  1  0  0  0  0
  2  3  2  0  0  0  0
  2  4  1  0  0  0  0
  3  5  1  0  0  0  0
  3  6  1  0  0  0  0
  4  7  2  0  0  0  0
  5  8  2  0  0  0  0
  6  9  1  0  0  0  0
  9 10  1  0  0  0  0
  9 11  1  0  0  0  0
 10 12  2  0  0  0  0
 11 13  2  0  0  0  0
 13 14  1  0  0  0  0
 14 15  1  0  0  0  0
 15 16  1  0  0  0  0
 16 17  1  0  0  0  0
 16 18  2  0  0  0  0
 17 19  1  0  0  0  0
 18 20  1  0  0  0  0
 19 21  2  0  0  0  0
 20 22  2  0  0  0  0
 21 23  1  0  0  0  0
 22 24  1  0  0  0  0
  7  8  1  0  0  0  0
 12 13  1  0  0  0  0
 19 20  1  0  0  0  0
 23 24  2  0  0  0  0
M  END
>  <S/N>
427

>  <Compound ID>
C_444

>  <PubChem CID>
155525485

>  <Isomeric SMILES>
C1=CC=C(C(=C1)CN2C=C(N=N2)CSC3=NC4=CC=CC=C4S3)Br

>  <IC50 (�M)>
20

>  <pIC50>
4.7

$$$$
C_445
Actelion Java MolfileCreator 1.0

 26 28  0  0  0  0  0  0  0  0999 V2000
   -0.4062    5.5229   -0.0000 Cl  0  0  0  0  0  0  0  0  0  0  0  0
    0.7119    4.5162   -0.0000 C   0  0  0  0  0  0  0  0  0  0  0  0
    0.3991    3.0447   -0.0000 C   0  0  0  0  0  0  0  0  0  0  0  0
    2.1427    4.9811   -0.0000 C   0  0  0  0  0  0  0  0  0  0  0  0
   -1.0317    2.5798   -0.0000 Cl  0  0  0  0  0  0  0  0  0  0  0  0
    1.5336    2.0791   -0.0000 C   0  0  0  0  0  0  0  0  0  0  0  0
    3.2607    3.9745   -0.0000 C   0  0  0  0  0  0  0  0  0  0  0  0
    2.9479    2.5029   -0.0000 C   0  0  0  0  0  0  0  0  0  0  0  0
    4.6915    4.4394   -0.0000 Cl  0  0  0  0  0  0  0  0  0  0  0  0
    4.0659    1.4962   -0.0000 N   0  0  0  0  0  0  0  0  0  0  0  0
    3.9087   -0.0000   -0.0000 C   0  0  0  0  0  0  0  0  0  0  0  0
    5.5375    1.8090   -0.0000 C   0  0  0  0  0  0  0  0  0  0  0  0
    5.2831   -0.6119   -0.0000 S   0  0  0  0  0  0  0  0  0  0  0  0
    2.6058   -0.7522   -0.0000 N   0  0  0  0  0  0  0  0  0  0  0  0
    6.2897    0.5061   -0.0000 C   0  0  0  0  0  0  0  0  0  0  0  0
    6.1494    3.1834   -0.0000 C   0  0  0  0  0  0  0  0  0  0  0  0
    1.3029   -0.0000   -0.0000 C   0  0  0  0  0  0  0  0  0  0  0  0
    1.2699    1.4222   -0.0000 O   0  0  0  0  0  0  0  0  0  0  0  0
   -0.0000   -0.7522   -0.0000 C   0  0  0  0  0  0  0  0  0  0  0  0
   -1.3029    0.0000   -0.0000 C   0  0  0  0  0  0  0  0  0  0  0  0
   -0.0000   -2.2567   -0.0000 C   0  0  0  0  0  0  0  0  0  0  0  0
   -2.6058   -0.7522   -0.0000 C   0  0  0  0  0  0  0  0  0  0  0  0
   -1.3029   -3.0089   -0.0000 C   0  0  0  0  0  0  0  0  0  0  0  0
   -2.6058   -2.2567   -0.0000 C   0  0  0  0  0  0  0  0  0  0  0  0
   -3.9087   -3.0089   -0.0000 O   0  0  0  0  0  0  0  0  0  0  0  0
   -3.9087   -4.5133   -0.0000 C   0  0  0  0  0  0  0  0  0  0  0  0
  1  2  1  0  0  0  0
  2  3  2  0  0  0  0
  2  4  1  0  0  0  0
  3  5  1  0  0  0  0
  3  6  1  0  0  0  0
  4  7  2  0  0  0  0
  6  8  2  0  0  0  0
  7  9  1  0  0  0  0
  8 10  1  0  0  0  0
 10 11  1  0  0  0  0
 10 12  1  0  0  0  0
 11 13  1  0  0  0  0
 11 14  2  3  0  0  0
 12 15  2  0  0  0  0
 12 16  1  0  0  0  0
 14 17  1  0  0  0  0
 17 18  2  0  0  0  0
 17 19  1  0  0  0  0
 19 20  2  0  0  0  0
 19 21  1  0  0  0  0
 20 22  1  0  0  0  0
 21 23  2  0  0  0  0
 22 24  2  0  0  0  0
 24 25  1  0  0  0  0
 25 26  1  0  0  0  0
  7  8  1  0  0  0  0
 13 15  1  0  0  0  0
 23 24  1  0  0  0  0
M  END
>  <S/N>
428

>  <Compound ID>
C_445

>  <PubChem CID>
155525755

>  <Isomeric SMILES>
CC1=CSC(=NC(=O)C2=CC=C(C=C2)OC)N1C3=CC(=C(C=C3Cl)Cl)Cl

>  <IC50 (�M)>
0.1

>  <pIC50>
7

$$$$
C_446
Actelion Java MolfileCreator 1.0

 22 24  0  0  0  0  0  0  0  0999 V2000
    3.9684   -0.1399   -0.0000 S   0  0  0  0  0  0  0  0  0  0  0  0
    4.9721   -1.2546   -0.0000 C   0  0  0  0  0  0  0  0  0  0  0  0
    2.5981   -0.7500   -0.0000 C   0  0  0  0  0  0  0  0  0  0  0  0
    6.4639   -1.0978   -0.0000 O   0  0  0  0  0  0  0  0  0  0  0  0
    4.2221   -2.5537   -0.0000 N   0  0  0  0  0  0  0  0  0  0  0  0
    2.7549   -2.2418   -0.0000 C   0  0  0  0  0  0  0  0  0  0  0  0
    1.2990   -0.0000   -0.0000 C   0  0  0  0  0  0  0  0  0  0  0  0
    1.6402   -3.2455   -0.0000 O   0  0  0  0  0  0  0  0  0  0  0  0
    0.0000   -0.7500   -0.0000 C   0  0  0  0  0  0  0  0  0  0  0  0
   -1.2990    0.0000   -0.0000 C   0  0  0  0  0  0  0  0  0  0  0  0
   -0.0000   -2.2500   -0.0000 C   0  0  0  0  0  0  0  0  0  0  0  0
   -2.5981   -0.7500   -0.0000 C   0  0  0  0  0  0  0  0  0  0  0  0
   -1.2990   -3.0000   -0.0000 C   0  0  0  0  0  0  0  0  0  0  0  0
   -2.5981   -2.2500   -0.0000 C   0  0  0  0  0  0  0  0  0  0  0  0
   -3.8971   -3.0000   -0.0000 N   0  0  0  0  0  0  0  0  0  0  0  0
   -5.2674   -2.3899   -0.0000 N   0  0  0  0  0  0  0  0  0  0  0  0
   -4.0539   -4.4918   -0.0000 C   0  0  0  0  0  0  0  0  0  0  0  0
   -6.2711   -3.5046   -0.0000 C   0  0  0  0  0  0  0  0  0  0  0  0
   -5.5211   -4.8037   -0.0000 C   0  0  0  0  0  0  0  0  0  0  0  0
   -6.1312   -6.1740   -0.0000 N   0  0  0  0  0  0  0  0  0  0  0  0
   -7.6230   -6.3308   -0.0000 O   0  0  0  0  0  0  0  0  0  0  0  0
   -5.2496   -7.3875   -0.0000 O   0  0  0  0  0  0  0  0  0  0  0  0
  1  2  1  0  0  0  0
  1  3  1  0  0  0  0
  2  4  2  0  0  0  0
  2  5  1  0  0  0  0
  3  6  1  0  0  0  0
  3  7  2  0  0  0  0
  6  8  2  0  0  0  0
  7  9  1  0  0  0  0
  9 10  2  0  0  0  0
  9 11  1  0  0  0  0
 10 12  1  0  0  0  0
 11 13  2  0  0  0  0
 12 14  2  0  0  0  0
 14 15  1  0  0  0  0
 15 16  1  0  0  0  0
 15 17  1  0  0  0  0
 16 18  2  0  0  0  0
 17 19  2  0  0  0  0
 19 20  1  0  0  0  0
 20 21  2  0  0  0  0
 20 22  1  0  0  0  0
  5  6  1  0  0  0  0
 13 14  1  0  0  0  0
 18 19  1  0  0  0  0
M  CHG  2  20   1  22  -1
M  END
>  <S/N>
429

>  <Compound ID>
C_446

>  <PubChem CID>
155525777

>  <Isomeric SMILES>
C1=CC(=CC=C1/C=C/2\C(=O)NC(=O)S2)N3C=C(C=N3)[N+](=O)[O-]

>  <IC50 (�M)>
0.55

>  <pIC50>
6.26

$$$$
C_447
Actelion Java MolfileCreator 1.0

 26 29  0  0  0  0  0  0  0  0999 V2000
    4.8132   -3.2132   -0.0000 Cl  0  0  0  0  0  0  0  0  0  0  0  0
    5.4010   -2.4042   -0.0000 C   0  0  0  0  0  0  0  0  0  0  0  0
    6.3955   -2.5088   -0.0000 C   0  0  0  0  0  0  0  0  0  0  0  0
    4.9942   -1.4907   -0.0000 C   0  0  0  0  0  0  0  0  0  0  0  0
    6.9833   -1.6997   -0.0000 C   0  0  0  0  0  0  0  0  0  0  0  0
    5.5820   -0.6817   -0.0000 C   0  0  0  0  0  0  0  0  0  0  0  0
    7.9778   -1.8043   -0.0000 Cl  0  0  0  0  0  0  0  0  0  0  0  0
    6.5765   -0.7862   -0.0000 C   0  0  0  0  0  0  0  0  0  0  0  0
    5.1753    0.2319   -0.0000 C   0  0  0  0  0  0  0  0  0  0  0  0
    4.1808    0.3364   -0.0000 N   0  0  0  0  0  0  0  0  0  0  0  0
    3.6808    1.2024   -0.0000 N   0  0  0  0  0  0  0  0  0  0  0  0
    3.5116   -0.4067   -0.0000 C   0  0  0  0  0  0  0  0  0  0  0  0
    2.7026    0.9945   -0.0000 N   0  0  0  0  0  0  0  0  0  0  0  0
    2.5981   -0.0000   -0.0000 C   0  0  0  0  0  0  0  0  0  0  0  0
    1.7321   -0.5000   -0.0000 C   0  0  0  0  0  0  0  0  0  0  0  0
    0.8660   -0.0000   -0.0000 S   0  0  0  0  0  0  0  0  0  0  0  0
    0.0000   -0.5000   -0.0000 C   0  0  0  0  0  0  0  0  0  0  0  0
   -0.9135   -0.0933   -0.0000 S   0  0  0  0  0  0  0  0  0  0  0  0
   -0.1045   -1.4945   -0.0000 N   0  0  0  0  0  0  0  0  0  0  0  0
   -1.5827   -0.8364   -0.0000 C   0  0  0  0  0  0  0  0  0  0  0  0
   -1.0827   -1.7024   -0.0000 C   0  0  0  0  0  0  0  0  0  0  0  0
   -2.5827   -0.8364   -0.0000 C   0  0  0  0  0  0  0  0  0  0  0  0
   -1.5827   -2.5685   -0.0000 C   0  0  0  0  0  0  0  0  0  0  0  0
   -3.0827   -1.7024   -0.0000 C   0  0  0  0  0  0  0  0  0  0  0  0
   -2.5827   -2.5685   -0.0000 C   0  0  0  0  0  0  0  0  0  0  0  0
   -3.0827   -3.4345   -0.0000 Cl  0  0  0  0  0  0  0  0  0  0  0  0
  1  2  1  0  0  0  0
  2  3  2  0  0  0  0
  2  4  1  0  0  0  0
  3  5  1  0  0  0  0
  4  6  2  0  0  0  0
  5  7  1  0  0  0  0
  5  8  2  0  0  0  0
  6  9  1  0  0  0  0
  9 10  1  0  0  0  0
 10 11  1  0  0  0  0
 10 12  1  0  0  0  0
 11 13  2  0  0  0  0
 12 14  2  0  0  0  0
 14 15  1  0  0  0  0
 15 16  1  0  0  0  0
 16 17  1  0  0  0  0
 17 18  1  0  0  0  0
 17 19  2  0  0  0  0
 18 20  1  0  0  0  0
 19 21  1  0  0  0  0
 20 22  2  0  0  0  0
 21 23  2  0  0  0  0
 22 24  1  0  0  0  0
 23 25  1  0  0  0  0
 25 26  1  0  0  0  0
  6  8  1  0  0  0  0
 13 14  1  0  0  0  0
 20 21  1  0  0  0  0
 24 25  2  0  0  0  0
M  END
>  <S/N>
430

>  <Compound ID>
C_447

>  <PubChem CID>
155526039

>  <Isomeric SMILES>
C1=CC2=C(C=C1Cl)N=C(S2)SCC3=CN(N=N3)CC4=CC(=CC(=C4)Cl)Cl

>  <IC50 (�M)>
20

>  <pIC50>
4.7

$$$$
C_448
Actelion Java MolfileCreator 1.0

 58 66  0  0  0  0  0  0  0  0999 V2000
    3.4641    2.5000   -0.0000 Br  0  0  0  0  0  0  0  0  0  0  0  0
    3.4641    1.5000   -0.0000 C   0  0  0  0  0  0  0  0  0  0  0  0
    2.5981    1.0000   -0.0000 C   0  0  0  0  0  0  0  0  0  0  0  0
    4.3301    1.0000   -0.0000 C   0  0  0  0  0  0  0  0  0  0  0  0
    2.5981   -0.0000   -0.0000 C   0  0  0  0  0  0  0  0  0  0  0  0
    4.3301   -0.0000   -0.0000 C   0  0  0  0  0  0  0  0  0  0  0  0
    3.4641   -0.5000   -0.0000 C   0  0  0  0  0  0  0  0  0  0  0  0
    1.7321   -0.5000   -0.0000 C   0  0  0  0  0  0  0  0  0  0  0  0
    1.7321   -1.5000   -0.0000 N   0  0  0  0  0  0  0  0  0  0  0  0
    0.8660   -0.0000   -0.0000 N   0  0  0  0  0  0  0  0  0  0  0  0
    0.9230   -2.0878   -0.0000 N   0  0  0  0  0  0  0  0  0  0  0  0
    2.5411   -2.0878   -0.0000 C   0  0  0  0  0  0  0  0  0  0  0  0
    0.0000   -0.5000   -0.0000 C   0  0  0  0  0  0  0  0  0  0  0  0
    1.2321   -3.0388   -0.0000 C   0  0  0  0  0  0  0  0  0  0  0  0
    3.4921   -1.7788   -0.0000 S   0  0  0  0  0  0  0  0  0  0  0  0
    2.2321   -3.0388   -0.0000 O   0  0  0  0  0  0  0  0  0  0  0  0
   -0.8660    0.0000   -0.0000 C   0  0  0  0  0  0  0  0  0  0  0  0
   -0.0000   -1.5000   -0.0000 C   0  0  0  0  0  0  0  0  0  0  0  0
    0.6443   -3.8479   -0.0000 C   0  0  0  0  0  0  0  0  0  0  0  0
   -1.7321   -0.5000   -0.0000 C   0  0  0  0  0  0  0  0  0  0  0  0
   -0.8660   -2.0000   -0.0000 C   0  0  0  0  0  0  0  0  0  0  0  0
   -0.3503   -3.7433   -0.0000 C   0  0  0  0  0  0  0  0  0  0  0  0
    1.0510   -4.7614   -0.0000 C   0  0  0  0  0  0  0  0  0  0  0  0
   -1.7321   -1.5000   -0.0000 C   0  0  0  0  0  0  0  0  0  0  0  0
   -0.7570   -2.8298   -0.0000 O   0  0  0  0  0  0  0  0  0  0  0  0
   -0.9380   -4.5523   -0.0000 O   0  0  0  0  0  0  0  0  0  0  0  0
    0.4632   -5.5704   -0.0000 C   0  0  0  0  0  0  0  0  0  0  0  0
   -2.5981   -2.0000   -0.0000 N   0  0  0  0  0  0  0  0  0  0  0  0
   -0.5313   -5.4659   -0.0000 C   0  0  0  0  0  0  0  0  0  0  0  0
    0.8700   -6.4840   -0.0000 C   0  0  0  0  0  0  0  0  0  0  0  0
   -3.4641   -1.5000   -0.0000 C   0  0  0  0  0  0  0  0  0  0  0  0
   -1.1191   -6.2749   -0.0000 C   0  0  0  0  0  0  0  0  0  0  0  0
    0.2822   -7.2930   -0.0000 C   0  0  0  0  0  0  0  0  0  0  0  0
   -3.4641   -0.5000   -0.0000 N   0  0  0  0  0  0  0  0  0  0  0  0
   -4.3301   -2.0000   -0.0000 C   0  0  0  0  0  0  0  0  0  0  0  0
   -0.7124   -7.1885   -0.0000 C   0  0  0  0  0  0  0  0  0  0  0  0
   -2.6551    0.0878   -0.0000 N   0  0  0  0  0  0  0  0  0  0  0  0
   -4.2731    0.0878   -0.0000 C   0  0  0  0  0  0  0  0  0  0  0  0
   -5.1962   -1.5000   -0.0000 C   0  0  0  0  0  0  0  0  0  0  0  0
   -4.3301   -3.0000   -0.0000 C   0  0  0  0  0  0  0  0  0  0  0  0
   -2.9641    1.0388   -0.0000 C   0  0  0  0  0  0  0  0  0  0  0  0
   -5.2242   -0.2212   -0.0000 S   0  0  0  0  0  0  0  0  0  0  0  0
   -3.9641    1.0388   -0.0000 O   0  0  0  0  0  0  0  0  0  0  0  0
   -6.0622   -2.0000   -0.0000 C   0  0  0  0  0  0  0  0  0  0  0  0
   -5.1962   -3.5000   -0.0000 C   0  0  0  0  0  0  0  0  0  0  0  0
   -2.3763    1.8479   -0.0000 C   0  0  0  0  0  0  0  0  0  0  0  0
   -6.9282   -1.5000   -0.0000 Br  0  0  0  0  0  0  0  0  0  0  0  0
   -6.0622   -3.0000   -0.0000 C   0  0  0  0  0  0  0  0  0  0  0  0
   -1.3818    1.7433   -0.0000 C   0  0  0  0  0  0  0  0  0  0  0  0
   -2.7831    2.7614   -0.0000 C   0  0  0  0  0  0  0  0  0  0  0  0
   -0.7940    2.5523   -0.0000 C   0  0  0  0  0  0  0  0  0  0  0  0
   -0.9751    0.8298   -0.0000 C   0  0  0  0  0  0  0  0  0  0  0  0
   -2.1953    3.5704   -0.0000 C   0  0  0  0  0  0  0  0  0  0  0  0
   -1.2007    3.4659   -0.0000 O   0  0  0  0  0  0  0  0  0  0  0  0
    0.2005    2.4478   -0.0000 C   0  0  0  0  0  0  0  0  0  0  0  0
    0.0195    0.7253   -0.0000 C   0  0  0  0  0  0  0  0  0  0  0  0
   -2.6020    4.4840   -0.0000 O   0  0  0  0  0  0  0  0  0  0  0  0
    0.6072    1.5343   -0.0000 C   0  0  0  0  0  0  0  0  0  0  0  0
  1  2  1  0  0  0  0
  2  3  2  0  0  0  0
  2  4  1  0  0  0  0
  3  5  1  0  0  0  0
  4  6  2  0  0  0  0
  5  7  2  0  0  0  0
  5  8  1  0  0  0  0
  8  9  1  0  0  0  0
  8 10  1  0  0  0  0
  9 11  1  0  0  0  0
  9 12  1  0  0  0  0
 10 13  1  0  0  0  0
 11 14  2  0  0  0  0
 12 15  2  0  0  0  0
 12 16  1  0  0  0  0
 13 17  2  0  0  0  0
 13 18  1  0  0  0  0
 14 19  1  0  0  0  0
 17 20  1  0  0  0  0
 18 21  2  0  0  0  0
 19 22  1  0  0  0  0
 19 23  2  0  0  0  0
 20 24  2  0  0  0  0
 22 25  2  0  0  0  0
 22 26  1  0  0  0  0
 23 27  1  0  0  0  0
 24 28  1  0  0  0  0
 26 29  1  0  0  0  0
 27 30  2  0  0  0  0
 28 31  1  0  0  0  0
 29 32  2  0  0  0  0
 30 33  1  0  0  0  0
 31 34  1  0  0  0  0
 31 35  1  0  0  0  0
 32 36  1  0  0  0  0
 34 37  1  0  0  0  0
 34 38  1  0  0  0  0
 35 39  2  0  0  0  0
 35 40  1  0  0  0  0
 37 41  2  0  0  0  0
 38 42  2  0  0  0  0
 38 43  1  0  0  0  0
 39 44  1  0  0  0  0
 40 45  2  0  0  0  0
 41 46  1  0  0  0  0
 44 47  1  0  0  0  0
 44 48  2  0  0  0  0
 46 49  1  0  0  0  0
 46 50  2  0  0  0  0
 49 51  2  0  0  0  0
 49 52  1  0  0  0  0
 50 53  1  0  0  0  0
 51 54  1  0  0  0  0
 51 55  1  0  0  0  0
 52 56  2  0  0  0  0
 53 57  2  0  0  0  0
 55 58  2  0  0  0  0
  6  7  1  0  0  0  0
 14 16  1  0  0  0  0
 21 24  1  0  0  0  0
 27 29  1  0  0  0  0
 33 36  2  0  0  0  0
 41 43  1  0  0  0  0
 45 48  1  0  0  0  0
 53 54  1  0  0  0  0
 56 58  1  0  0  0  0
M  END
>  <S/N>
431

>  <Compound ID>
C_448

>  <PubChem CID>
155526708

>  <Isomeric SMILES>
C1=CC=C2C(=C1)C=C(C(=O)O2)C3=NN(C(=S)O3)C(C4=CC(=CC=C4)Br)NC5=CC=C(C=C5)NC(C6=CC(=CC=C6)Br)N7C(=S)OC(=N7)C8=CC(=O)OC9=CC=CC=C98

>  <IC50 (�M)>
0.07

>  <pIC50>
7.15

$$$$
C_449
Actelion Java MolfileCreator 1.0

 24 27  0  0  0  0  0  0  0  0999 V2000
    6.8022   -3.4223   -0.0000 Br  0  0  0  0  0  0  0  0  0  0  0  0
    6.3955   -2.5088   -0.0000 C   0  0  0  0  0  0  0  0  0  0  0  0
    6.9833   -1.6997   -0.0000 C   0  0  0  0  0  0  0  0  0  0  0  0
    5.4010   -2.4042   -0.0000 C   0  0  0  0  0  0  0  0  0  0  0  0
    6.5765   -0.7862   -0.0000 C   0  0  0  0  0  0  0  0  0  0  0  0
    4.9942   -1.4907   -0.0000 C   0  0  0  0  0  0  0  0  0  0  0  0
    5.5820   -0.6817   -0.0000 C   0  0  0  0  0  0  0  0  0  0  0  0
    5.1753    0.2319   -0.0000 C   0  0  0  0  0  0  0  0  0  0  0  0
    4.1808    0.3364   -0.0000 N   0  0  0  0  0  0  0  0  0  0  0  0
    3.6808    1.2024   -0.0000 N   0  0  0  0  0  0  0  0  0  0  0  0
    3.5116   -0.4067   -0.0000 C   0  0  0  0  0  0  0  0  0  0  0  0
    2.7026    0.9945   -0.0000 N   0  0  0  0  0  0  0  0  0  0  0  0
    2.5981   -0.0000   -0.0000 C   0  0  0  0  0  0  0  0  0  0  0  0
    1.7321   -0.5000   -0.0000 C   0  0  0  0  0  0  0  0  0  0  0  0
    0.8660   -0.0000   -0.0000 S   0  0  0  0  0  0  0  0  0  0  0  0
    0.0000   -0.5000   -0.0000 C   0  0  0  0  0  0  0  0  0  0  0  0
   -0.9135   -0.0933   -0.0000 S   0  0  0  0  0  0  0  0  0  0  0  0
   -0.1045   -1.4945   -0.0000 N   0  0  0  0  0  0  0  0  0  0  0  0
   -1.5827   -0.8364   -0.0000 C   0  0  0  0  0  0  0  0  0  0  0  0
   -1.0827   -1.7024   -0.0000 C   0  0  0  0  0  0  0  0  0  0  0  0
   -2.5827   -0.8364   -0.0000 C   0  0  0  0  0  0  0  0  0  0  0  0
   -1.5827   -2.5685   -0.0000 C   0  0  0  0  0  0  0  0  0  0  0  0
   -3.0827   -1.7024   -0.0000 C   0  0  0  0  0  0  0  0  0  0  0  0
   -2.5827   -2.5685   -0.0000 C   0  0  0  0  0  0  0  0  0  0  0  0
  1  2  1  0  0  0  0
  2  3  2  0  0  0  0
  2  4  1  0  0  0  0
  3  5  1  0  0  0  0
  4  6  2  0  0  0  0
  5  7  2  0  0  0  0
  7  8  1  0  0  0  0
  8  9  1  0  0  0  0
  9 10  1  0  0  0  0
  9 11  1  0  0  0  0
 10 12  2  0  0  0  0
 11 13  2  0  0  0  0
 13 14  1  0  0  0  0
 14 15  1  0  0  0  0
 15 16  1  0  0  0  0
 16 17  1  0  0  0  0
 16 18  2  0  0  0  0
 17 19  1  0  0  0  0
 18 20  1  0  0  0  0
 19 21  2  0  0  0  0
 20 22  2  0  0  0  0
 21 23  1  0  0  0  0
 22 24  1  0  0  0  0
  6  7  1  0  0  0  0
 12 13  1  0  0  0  0
 19 20  1  0  0  0  0
 23 24  2  0  0  0  0
M  END
>  <S/N>
432

>  <Compound ID>
C_449

>  <PubChem CID>
155526927

>  <Isomeric SMILES>
C1=CC=C2C(=C1)N=C(S2)SCC3=CN(N=N3)CC4=CC=C(C=C4)Br

>  <IC50 (�M)>
20

>  <pIC50>
4.7

$$$$
C_450
Actelion Java MolfileCreator 1.0

 36 40  0  0  0  0  0  0  0  0999 V2000
    4.4347    0.9945   -0.0000 S   0  0  0  0  0  0  0  0  0  0  0  0
    4.3301   -0.0000   -0.0000 C   0  0  0  0  0  0  0  0  0  0  0  0
    5.4128    1.2024   -0.0000 C   0  0  0  0  0  0  0  0  0  0  0  0
    5.2437   -0.4067   -0.0000 N   0  0  0  0  0  0  0  0  0  0  0  0
    3.4641   -0.5000   -0.0000 N   0  0  0  0  0  0  0  0  0  0  0  0
    5.9128    0.3364   -0.0000 C   0  0  0  0  0  0  0  0  0  0  0  0
    2.5981   -0.0000   -0.0000 C   0  0  0  0  0  0  0  0  0  0  0  0
    6.9073    0.2319   -0.0000 C   0  0  0  0  0  0  0  0  0  0  0  0
    2.5981    1.0000   -0.0000 O   0  0  0  0  0  0  0  0  0  0  0  0
    1.7321   -0.5000   -0.0000 C   0  0  0  0  0  0  0  0  0  0  0  0
    7.3141   -0.6817   -0.0000 C   0  0  0  0  0  0  0  0  0  0  0  0
    7.4951    1.0409   -0.0000 C   0  0  0  0  0  0  0  0  0  0  0  0
    0.8660   -0.0000   -0.0000 S   0  0  0  0  0  0  0  0  0  0  0  0
    8.3086   -0.7862   -0.0000 C   0  0  0  0  0  0  0  0  0  0  0  0
    8.4896    0.9364   -0.0000 C   0  0  0  0  0  0  0  0  0  0  0  0
    0.0000   -0.5000   -0.0000 C   0  0  0  0  0  0  0  0  0  0  0  0
    8.8964    0.0228   -0.0000 C   0  0  0  0  0  0  0  0  0  0  0  0
   -0.8660    0.0000   -0.0000 N   0  0  0  0  0  0  0  0  0  0  0  0
   -0.0000   -1.5000   -0.0000 N   0  0  0  0  0  0  0  0  0  0  0  0
   -1.7321   -0.5000   -0.0000 N   0  0  0  0  0  0  0  0  0  0  0  0
   -0.8660   -2.0000   -0.0000 C   0  0  0  0  0  0  0  0  0  0  0  0
   -1.7321   -1.5000   -0.0000 C   0  0  0  0  0  0  0  0  0  0  0  0
   -0.8660   -3.0000   -0.0000 C   0  0  0  0  0  0  0  0  0  0  0  0
   -2.5981   -2.0000   -0.0000 C   0  0  0  0  0  0  0  0  0  0  0  0
   -1.7321   -3.5000   -0.0000 C   0  0  0  0  0  0  0  0  0  0  0  0
   -0.0000   -3.5000   -0.0000 C   0  0  0  0  0  0  0  0  0  0  0  0
   -3.4641   -1.5000   -0.0000 C   0  0  0  0  0  0  0  0  0  0  0  0
   -2.5981   -3.0000   -0.0000 C   0  0  0  0  0  0  0  0  0  0  0  0
   -1.7321   -4.5000   -0.0000 C   0  0  0  0  0  0  0  0  0  0  0  0
   -0.0000   -4.5000   -0.0000 C   0  0  0  0  0  0  0  0  0  0  0  0
   -4.3301   -2.0000   -0.0000 C   0  0  0  0  0  0  0  0  0  0  0  0
   -3.4641   -3.5000   -0.0000 C   0  0  0  0  0  0  0  0  0  0  0  0
   -0.8660   -5.0000   -0.0000 C   0  0  0  0  0  0  0  0  0  0  0  0
   -4.3301   -3.0000   -0.0000 C   0  0  0  0  0  0  0  0  0  0  0  0
   -0.8660   -6.0000   -0.0000 F   0  0  0  0  0  0  0  0  0  0  0  0
   -5.1962   -3.5000   -0.0000 F   0  0  0  0  0  0  0  0  0  0  0  0
  1  2  1  0  0  0  0
  1  3  1  0  0  0  0
  2  4  2  0  0  0  0
  2  5  1  0  0  0  0
  3  6  2  0  0  0  0
  5  7  1  0  0  0  0
  6  8  1  0  0  0  0
  7  9  2  0  0  0  0
  7 10  1  0  0  0  0
  8 11  2  0  0  0  0
  8 12  1  0  0  0  0
 10 13  1  0  0  0  0
 11 14  1  0  0  0  0
 12 15  2  0  0  0  0
 13 16  1  0  0  0  0
 14 17  2  0  0  0  0
 16 18  2  0  0  0  0
 16 19  1  0  0  0  0
 18 20  1  0  0  0  0
 19 21  2  0  0  0  0
 20 22  2  0  0  0  0
 21 23  1  0  0  0  0
 22 24  1  0  0  0  0
 23 25  2  0  0  0  0
 23 26  1  0  0  0  0
 24 27  2  0  0  0  0
 24 28  1  0  0  0  0
 25 29  1  0  0  0  0
 26 30  2  0  0  0  0
 27 31  1  0  0  0  0
 28 32  2  0  0  0  0
 29 33  2  0  0  0  0
 31 34  2  0  0  0  0
 33 35  1  0  0  0  0
 34 36  1  0  0  0  0
  4  6  1  0  0  0  0
 15 17  1  0  0  0  0
 21 22  1  0  0  0  0
 30 33  1  0  0  0  0
 32 34  1  0  0  0  0
M  END
>  <S/N>
433

>  <Compound ID>
C_450

>  <PubChem CID>
155526933

>  <Isomeric SMILES>
C1=CC=C(C=C1)C2=CSC(=N2)NC(=O)CSC3=NC(=C(N=N3)C4=CC=C(C=C4)F)C5=CC=C(C=C5)F

>  <IC50 (�M)>
2.8

>  <pIC50>
5.55

$$$$
C_451
Actelion Java MolfileCreator 1.0

 32 36  0  0  0  0  0  0  0  0999 V2000
    4.3301   -0.0000   -0.0000 Cl  0  0  0  0  0  0  0  0  0  0  0  0
    3.4641   -0.5000   -0.0000 C   0  0  0  0  0  0  0  0  0  0  0  0
    2.5981   -0.0000   -0.0000 C   0  0  0  0  0  0  0  0  0  0  0  0
    3.4641   -1.5000   -0.0000 C   0  0  0  0  0  0  0  0  0  0  0  0
    1.7321   -0.5000   -0.0000 C   0  0  0  0  0  0  0  0  0  0  0  0
    2.5981   -2.0000   -0.0000 C   0  0  0  0  0  0  0  0  0  0  0  0
    1.7321   -1.5000   -0.0000 C   0  0  0  0  0  0  0  0  0  0  0  0
    0.8660   -0.0000   -0.0000 C   0  0  0  0  0  0  0  0  0  0  0  0
    0.8660    1.0000   -0.0000 C   0  0  0  0  0  0  0  0  0  0  0  0
    0.0000   -0.5000   -0.0000 C   0  0  0  0  0  0  0  0  0  0  0  0
   -0.0000    1.5000   -0.0000 C   0  0  0  0  0  0  0  0  0  0  0  0
    1.7321    1.5000   -0.0000 C   0  0  0  0  0  0  0  0  0  0  0  0
   -0.8660    0.0000   -0.0000 C   0  0  0  0  0  0  0  0  0  0  0  0
   -0.0000   -1.5000   -0.0000 C   0  0  0  0  0  0  0  0  0  0  0  0
   -1.0180    0.8015   -0.0000 O   0  0  0  0  0  0  0  0  0  0  0  0
   -0.0000    2.5000   -0.0000 O   0  0  0  0  0  0  0  0  0  0  0  0
    2.5981    1.0000   -0.0000 N   0  0  0  0  0  0  0  0  0  0  0  0
    1.7321    2.5000   -0.0000 C   0  0  0  0  0  0  0  0  0  0  0  0
   -0.9855    1.1741   -0.0000 O   0  0  0  0  0  0  0  0  0  0  0  0
   -1.7321   -0.5000   -0.0000 O   0  0  0  0  0  0  0  0  0  0  0  0
    0.8660   -2.0000   -0.0000 N   0  0  0  0  0  0  0  0  0  0  0  0
   -0.8660   -2.0000   -0.0000 C   0  0  0  0  0  0  0  0  0  0  0  0
    0.8660    3.0000   -0.0000 C   0  0  0  0  0  0  0  0  0  0  0  0
    2.5981    3.0000   -0.0000 C   0  0  0  0  0  0  0  0  0  0  0  0
   -1.7321   -1.5000   -0.0000 C   0  0  0  0  0  0  0  0  0  0  0  0
   -0.8660   -3.0000   -0.0000 C   0  0  0  0  0  0  0  0  0  0  0  0
    0.8660    4.0000   -0.0000 C   0  0  0  0  0  0  0  0  0  0  0  0
    2.5981    4.0000   -0.0000 C   0  0  0  0  0  0  0  0  0  0  0  0
   -2.5981   -2.0000   -0.0000 C   0  0  0  0  0  0  0  0  0  0  0  0
   -1.7321   -3.5000   -0.0000 C   0  0  0  0  0  0  0  0  0  0  0  0
    1.7321    4.5000   -0.0000 C   0  0  0  0  0  0  0  0  0  0  0  0
   -2.5981   -3.0000   -0.0000 C   0  0  0  0  0  0  0  0  0  0  0  0
  1  2  1  0  0  0  0
  2  3  2  0  0  0  0
  2  4  1  0  0  0  0
  3  5  1  0  0  0  0
  4  6  2  0  0  0  0
  5  7  2  0  0  0  0
  5  8  1  0  0  0  0
  8  9  1  0  0  0  0
  8 10  1  0  0  0  0
  9 11  1  0  0  0  0
  9 12  2  0  0  0  0
 10 13  1  0  0  0  0
 10 14  2  0  0  0  0
 11 15  2  0  0  0  0
 11 16  1  0  0  0  0
 12 17  1  0  0  0  0
 12 18  1  0  0  0  0
 13 19  2  0  0  0  0
 13 20  1  0  0  0  0
 14 21  1  0  0  0  0
 14 22  1  0  0  0  0
 16 23  1  0  0  0  0
 18 24  2  0  0  0  0
 20 25  1  0  0  0  0
 22 26  2  0  0  0  0
 23 27  2  0  0  0  0
 24 28  1  0  0  0  0
 25 29  2  0  0  0  0
 26 30  1  0  0  0  0
 27 31  1  0  0  0  0
 29 32  1  0  0  0  0
  6  7  1  0  0  0  0
 18 23  1  0  0  0  0
 22 25  1  0  0  0  0
 28 31  2  0  0  0  0
 30 32  2  0  0  0  0
M  END
>  <S/N>
434

>  <Compound ID>
C_451

>  <PubChem CID>
155527075

>  <Isomeric SMILES>
C1=CC=C2C(=C1)C(=C(C(=O)O2)C(C3=CC(=CC=C3)Cl)C4=C(C5=CC=CC=C5OC4=O)N)N

>  <IC50 (�M)>
20

>  <pIC50>
4.7

$$$$
C_452
Actelion Java MolfileCreator 1.0

 48 48  0  0  1  0  0  0  0  0999 V2000
   10.3923    3.7500   -0.0000 S   0  0  0  0  0  0  0  0  0  0  0  0
   10.3923    2.2500   -0.0000 C   0  0  0  0  0  0  0  0  0  0  0  0
   11.6913    4.5000   -0.0000 C   0  0  0  0  0  0  0  0  0  0  0  0
    9.0933    1.5000   -0.0000 C   0  0  0  0  0  0  0  0  0  0  0  0
    9.0933   -0.0000   -0.0000 C   0  0  0  0  0  0  0  0  0  0  0  0
    7.7942   -0.7500   -0.0000 N   0  0  0  0  0  0  0  0  0  0  0  0
   10.3923   -0.7500   -0.0000 C   0  0  0  0  0  0  0  0  0  0  0  0
    7.7942   -2.2500   -0.0000 C   0  0  0  0  0  0  0  0  0  0  0  0
   11.6913   -0.0000   -0.0000 O   0  0  0  0  0  0  0  0  0  0  0  0
   10.3923   -2.2500   -0.0000 O   0  0  0  0  0  0  0  0  0  0  0  0
    9.0933   -3.0000   -0.0000 O   0  0  0  0  0  0  0  0  0  0  0  0
    6.4952   -3.0000   -0.0000 C   0  0  0  0  0  0  0  0  0  0  0  0
    5.1962   -2.2500   -0.0000 N   0  0  0  0  0  0  0  0  0  0  0  0
    6.4952   -4.5000   -0.0000 C   0  0  0  0  0  0  0  0  0  0  0  0
    5.1962   -0.7500   -0.0000 C   0  0  0  0  0  0  0  0  0  0  0  0
    7.7942   -5.2500   -0.0000 C   0  0  0  0  0  0  0  0  0  0  0  0
    6.4952   -0.0000   -0.0000 O   0  0  0  0  0  0  0  0  0  0  0  0
    3.8971   -0.0000   -0.0000 C   0  0  0  0  0  0  0  0  0  0  0  0
    9.0933   -4.5000   -0.0000 C   0  0  0  0  0  0  0  0  0  0  0  0
    7.7942   -6.7500   -0.0000 C   0  0  0  0  0  0  0  0  0  0  0  0
    2.5981   -0.7500   -0.0000 N   0  0  0  0  0  0  0  0  0  0  0  0
    3.8971    1.5000   -0.0000 C   0  0  0  0  0  0  0  0  0  0  0  0
    1.2990   -0.0000   -0.0000 C   0  0  0  0  0  0  0  0  0  0  0  0
    2.5981    2.2500   -0.0000 O   0  0  0  0  0  0  0  0  0  0  0  0
    1.2990    1.5000   -0.0000 O   0  0  0  0  0  0  0  0  0  0  0  0
    0.0000   -0.7500   -0.0000 C   0  0  0  0  0  0  0  0  0  0  0  0
   -1.3703   -0.1399   -0.0000 N   0  0  0  0  0  0  0  0  0  0  0  0
   -0.1568   -2.2418   -0.0000 C   0  0  0  0  0  0  0  0  0  0  0  0
   -1.6822    1.3273   -0.0000 C   0  0  0  0  0  0  0  0  0  0  0  0
   -2.3740   -1.2546   -0.0000 C   0  0  0  0  0  0  0  0  0  0  0  0
   -1.6240   -2.5537   -0.0000 C   0  0  0  0  0  0  0  0  0  0  0  0
   -0.5675    2.3310   -0.0000 O   0  0  0  0  0  0  0  0  0  0  0  0
   -3.1088    1.7909   -0.0000 C   0  0  0  0  0  0  0  0  0  0  0  0
   -3.4206    3.2581   -0.0000 N   0  0  0  0  0  0  0  0  0  0  0  0
   -4.2235    0.7872   -0.0000 C   0  0  0  0  0  0  0  0  0  0  0  0
   -4.8472    3.7216   -0.0000 C   0  0  0  0  0  0  0  0  0  0  0  0
   -3.9116   -0.6801   -0.0000 C   0  0  0  0  0  0  0  0  0  0  0  0
   -5.6501    1.2507   -0.0000 C   0  0  0  0  0  0  0  0  0  0  0  0
   -5.9619    2.7179   -0.0000 O   0  0  0  0  0  0  0  0  0  0  0  0
   -5.1591    5.1888   -0.0000 C   0  0  0  0  0  0  0  0  0  0  0  0
   -4.0444    6.1925   -0.0000 N   0  0  0  0  0  0  0  0  0  0  0  0
   -6.5857    5.6523   -0.0000 C   0  0  0  0  0  0  0  0  0  0  0  0
   -6.8975    7.1196   -0.0000 C   0  0  0  0  0  0  0  0  0  0  0  0
   -8.3241    7.5831   -0.0000 C   0  0  0  0  0  0  0  0  0  0  0  0
   -8.6360    9.0503   -0.0000 N   0  0  0  0  0  0  0  0  0  0  0  0
  -10.0626    9.5138   -0.0000 C   0  0  0  0  0  0  0  0  0  0  0  0
  -11.1773    8.5101   -0.0000 N   0  0  0  0  0  0  0  0  0  0  0  0
  -10.3744   10.9811   -0.0000 N   0  0  0  0  0  0  0  0  0  0  0  0
  1  2  1  0  0  0  0
  1  3  1  0  0  0  0
  2  4  1  0  0  0  0
  4  5  1  0  0  0  0
  5  6  1  1  0  0  0
  5  7  1  0  0  0  0
  6  8  1  0  0  0  0
  7  9  2  0  0  0  0
  7 10  1  0  0  0  0
  8 11  2  0  0  0  0
  8 12  1  0  0  0  0
 12 13  1  6  0  0  0
 12 14  1  0  0  0  0
 13 15  1  0  0  0  0
 14 16  1  0  0  0  0
 15 17  2  0  0  0  0
 15 18  1  0  0  0  0
 16 19  1  0  0  0  0
 16 20  1  0  0  0  0
 18 21  1  1  0  0  0
 18 22  1  0  0  0  0
 21 23  1  0  0  0  0
 22 24  1  0  0  0  0
 23 25  2  0  0  0  0
 26 23  1  6  0  0  0
 26 27  1  0  0  0  0
 26 28  1  0  0  0  0
 27 29  1  0  0  0  0
 27 30  1  0  0  0  0
 28 31  1  0  0  0  0
 29 32  2  0  0  0  0
 29 33  1  0  0  0  0
 33 34  1  6  0  0  0
 33 35  1  0  0  0  0
 34 36  1  0  0  0  0
 35 37  1  0  0  0  0
 35 38  1  0  0  0  0
 36 39  2  0  0  0  0
 36 40  1  0  0  0  0
 40 41  1  6  0  0  0
 40 42  1  0  0  0  0
 42 43  1  0  0  0  0
 43 44  1  0  0  0  0
 44 45  1  0  0  0  0
 45 46  2  0  0  0  0
 46 47  1  0  0  0  0
 46 48  1  0  0  0  0
 30 31  1  0  0  0  0
M  END
>  <S/N>
435

>  <Compound ID>
C_452

>  <PubChem CID>
155527124

>  <Isomeric SMILES>
CC(C)C[C@@H](C(=O)N[C@@H](CCSC)C(=O)O)NC(=O)[C@H](CO)NC(=O)[C@@H]1CCCN1C(=O)[C@H](C(C)C)NC(=O)[C@H](CCCN=C(N)N)N

>  <IC50 (�M)>
23.07

>  <pIC50>
4.64

$$$$
C_453
Actelion Java MolfileCreator 1.0

 29 32  0  0  0  0  0  0  0  0999 V2000
    1.7321    4.5000   -0.0000 Br  0  0  0  0  0  0  0  0  0  0  0  0
    2.5981    4.0000   -0.0000 C   0  0  0  0  0  0  0  0  0  0  0  0
    2.5981    3.0000   -0.0000 C   0  0  0  0  0  0  0  0  0  0  0  0
    3.4641    4.5000   -0.0000 C   0  0  0  0  0  0  0  0  0  0  0  0
    3.4641    2.5000   -0.0000 C   0  0  0  0  0  0  0  0  0  0  0  0
    4.3301    4.0000   -0.0000 C   0  0  0  0  0  0  0  0  0  0  0  0
    3.4641    1.5000   -0.0000 C   0  0  0  0  0  0  0  0  0  0  0  0
    4.3301    3.0000   -0.0000 C   0  0  0  0  0  0  0  0  0  0  0  0
    2.5981    1.0000   -0.0000 N   0  0  0  0  0  0  0  0  0  0  0  0
    4.3301    1.0000   -0.0000 C   0  0  0  0  0  0  0  0  0  0  0  0
    2.5981   -0.0000   -0.0000 C   0  0  0  0  0  0  0  0  0  0  0  0
    4.3301   -0.0000   -0.0000 C   0  0  0  0  0  0  0  0  0  0  0  0
    1.7321   -0.5000   -0.0000 S   0  0  0  0  0  0  0  0  0  0  0  0
    3.4641   -0.5000   -0.0000 N   0  0  0  0  0  0  0  0  0  0  0  0
    5.1962   -0.5000   -0.0000 C   0  0  0  0  0  0  0  0  0  0  0  0
    0.8660   -0.0000   -0.0000 C   0  0  0  0  0  0  0  0  0  0  0  0
    5.1962   -1.5000   -0.0000 C   0  0  0  0  0  0  0  0  0  0  0  0
    6.0622   -0.0000   -0.0000 C   0  0  0  0  0  0  0  0  0  0  0  0
    0.0000   -0.5000   -0.0000 C   0  0  0  0  0  0  0  0  0  0  0  0
    6.0622   -2.0000   -0.0000 C   0  0  0  0  0  0  0  0  0  0  0  0
    6.9282   -0.5000   -0.0000 C   0  0  0  0  0  0  0  0  0  0  0  0
   -0.8660    0.0000   -0.0000 C   0  0  0  0  0  0  0  0  0  0  0  0
   -0.0000   -1.5000   -0.0000 C   0  0  0  0  0  0  0  0  0  0  0  0
    6.9282   -1.5000   -0.0000 C   0  0  0  0  0  0  0  0  0  0  0  0
   -1.7321   -0.5000   -0.0000 C   0  0  0  0  0  0  0  0  0  0  0  0
   -0.8660   -2.0000   -0.0000 C   0  0  0  0  0  0  0  0  0  0  0  0
    7.7942   -2.0000   -0.0000 C   0  0  0  0  0  0  0  0  0  0  0  0
   -1.7321   -1.5000   -0.0000 C   0  0  0  0  0  0  0  0  0  0  0  0
   -2.5981   -2.0000   -0.0000 F   0  0  0  0  0  0  0  0  0  0  0  0
  1  2  1  0  0  0  0
  2  3  2  0  0  0  0
  2  4  1  0  0  0  0
  3  5  1  0  0  0  0
  4  6  2  0  0  0  0
  5  7  1  0  0  0  0
  5  8  2  0  0  0  0
  7  9  2  0  0  0  0
  7 10  1  0  0  0  0
  9 11  1  0  0  0  0
 10 12  2  0  0  0  0
 11 13  1  0  0  0  0
 11 14  2  0  0  0  0
 12 15  1  0  0  0  0
 13 16  1  0  0  0  0
 15 17  2  0  0  0  0
 15 18  1  0  0  0  0
 16 19  1  0  0  0  0
 17 20  1  0  0  0  0
 18 21  2  0  0  0  0
 19 22  2  0  0  0  0
 19 23  1  0  0  0  0
 20 24  2  0  0  0  0
 22 25  1  0  0  0  0
 23 26  2  0  0  0  0
 24 27  1  0  0  0  0
 25 28  2  0  0  0  0
 28 29  1  0  0  0  0
  6  8  1  0  0  0  0
 12 14  1  0  0  0  0
 21 24  1  0  0  0  0
 26 28  1  0  0  0  0
M  END
>  <S/N>
436

>  <Compound ID>
C_453

>  <PubChem CID>
155527135

>  <Isomeric SMILES>
CC1=CC=C(C=C1)C2=CC(=NC(=N2)SCC3=CC=C(C=C3)F)C4=CC(=CC=C4)Br

>  <IC50 (�M)>
19

>  <pIC50>
4.72

$$$$
C_454
Actelion Java MolfileCreator 1.0

 54 60  0  0  0  0  0  0  0  0999 V2000
    5.1962   -0.7500   -0.0000 S   0  0  0  0  0  0  0  0  0  0  0  0
    4.4462   -2.0490   -0.0000 O   0  0  0  0  0  0  0  0  0  0  0  0
    5.9462   -2.0490   -0.0000 O   0  0  0  0  0  0  0  0  0  0  0  0
    3.8971   -0.0000   -0.0000 N   0  0  0  0  0  0  0  0  0  0  0  0
    6.4952   -0.0000   -0.0000 C   0  0  0  0  0  0  0  0  0  0  0  0
    2.5981   -0.7500   -0.0000 N   0  0  0  0  0  0  0  0  0  0  0  0
    7.7942   -0.7500   -0.0000 C   0  0  0  0  0  0  0  0  0  0  0  0
    6.4952    1.5000   -0.0000 C   0  0  0  0  0  0  0  0  0  0  0  0
    1.2990   -0.0000   -0.0000 C   0  0  0  0  0  0  0  0  0  0  0  0
    9.0933   -0.0000   -0.0000 C   0  0  0  0  0  0  0  0  0  0  0  0
    7.7942    2.2500   -0.0000 C   0  0  0  0  0  0  0  0  0  0  0  0
    1.2990    1.5000   -0.0000 O   0  0  0  0  0  0  0  0  0  0  0  0
    0.0000   -0.7500   -0.0000 C   0  0  0  0  0  0  0  0  0  0  0  0
    9.0933    1.5000   -0.0000 C   0  0  0  0  0  0  0  0  0  0  0  0
   -0.0000   -2.2500   -0.0000 C   0  0  0  0  0  0  0  0  0  0  0  0
   -1.2990    0.0000   -0.0000 C   0  0  0  0  0  0  0  0  0  0  0  0
   10.3923    2.2500   -0.0000 C   0  0  0  0  0  0  0  0  0  0  0  0
   -1.2990   -3.0000   -0.0000 C   0  0  0  0  0  0  0  0  0  0  0  0
   -2.5981   -0.7500   -0.0000 C   0  0  0  0  0  0  0  0  0  0  0  0
   -2.5981   -2.2500   -0.0000 C   0  0  0  0  0  0  0  0  0  0  0  0
   -1.6109   -4.4672   -0.0000 C   0  0  0  0  0  0  0  0  0  0  0  0
   -3.7128   -3.2537   -0.0000 N   0  0  0  0  0  0  0  0  0  0  0  0
   -3.1027   -4.6240   -0.0000 C   0  0  0  0  0  0  0  0  0  0  0  0
   -0.6072   -5.5819   -0.0000 C   0  0  0  0  0  0  0  0  0  0  0  0
   -1.0707   -7.0085   -0.0000 C   0  0  0  0  0  0  0  0  0  0  0  0
    0.8600   -5.2701   -0.0000 C   0  0  0  0  0  0  0  0  0  0  0  0
   -2.5380   -7.3204   -0.0000 C   0  0  0  0  0  0  0  0  0  0  0  0
   -0.0670   -8.1233   -0.0000 C   0  0  0  0  0  0  0  0  0  0  0  0
    1.9747   -6.2738   -0.0000 C   0  0  0  0  0  0  0  0  0  0  0  0
    1.4701   -3.8998   -0.0000 C   0  0  0  0  0  0  0  0  0  0  0  0
   -3.0015   -8.7470   -0.0000 C   0  0  0  0  0  0  0  0  0  0  0  0
   -0.5306   -9.5498   -0.0000 C   0  0  0  0  0  0  0  0  0  0  0  0
    3.2738   -5.5238   -0.0000 C   0  0  0  0  0  0  0  0  0  0  0  0
    1.9747   -7.7738   -0.0000 C   0  0  0  0  0  0  0  0  0  0  0  0
    2.9619   -4.0566   -0.0000 N   0  0  0  0  0  0  0  0  0  0  0  0
   -1.9978   -9.8617   -0.0000 C   0  0  0  0  0  0  0  0  0  0  0  0
    4.5728   -6.2738   -0.0000 C   0  0  0  0  0  0  0  0  0  0  0  0
    3.2738   -8.5238   -0.0000 C   0  0  0  0  0  0  0  0  0  0  0  0
   -2.4613  -11.2883   -0.0000 C   0  0  0  0  0  0  0  0  0  0  0  0
    4.5728   -7.7738   -0.0000 C   0  0  0  0  0  0  0  0  0  0  0  0
    3.2738  -10.0238   -0.0000 C   0  0  0  0  0  0  0  0  0  0  0  0
    4.5728  -10.7738   -0.0000 O   0  0  0  0  0  0  0  0  0  0  0  0
    1.9747  -10.7738   -0.0000 N   0  0  0  0  0  0  0  0  0  0  0  0
    1.9747  -12.2738   -0.0000 N   0  0  0  0  0  0  0  0  0  0  0  0
    0.6757  -13.0238   -0.0000 S   0  0  0  0  0  0  0  0  0  0  0  0
   -0.0743  -11.7248   -0.0000 O   0  0  0  0  0  0  0  0  0  0  0  0
   -0.8243  -13.0238   -0.0000 O   0  0  0  0  0  0  0  0  0  0  0  0
    0.6757  -14.5238   -0.0000 C   0  0  0  0  0  0  0  0  0  0  0  0
   -0.6233  -15.2738   -0.0000 C   0  0  0  0  0  0  0  0  0  0  0  0
    1.9747  -15.2738   -0.0000 C   0  0  0  0  0  0  0  0  0  0  0  0
   -0.6233  -16.7738   -0.0000 C   0  0  0  0  0  0  0  0  0  0  0  0
    1.9747  -16.7738   -0.0000 C   0  0  0  0  0  0  0  0  0  0  0  0
    0.6757  -17.5238   -0.0000 C   0  0  0  0  0  0  0  0  0  0  0  0
    0.6757  -19.0238   -0.0000 C   0  0  0  0  0  0  0  0  0  0  0  0
  1  2  2  0  0  0  0
  1  3  2  0  0  0  0
  1  4  1  0  0  0  0
  1  5  1  0  0  0  0
  4  6  1  0  0  0  0
  5  7  2  0  0  0  0
  5  8  1  0  0  0  0
  6  9  1  0  0  0  0
  7 10  1  0  0  0  0
  8 11  2  0  0  0  0
  9 12  2  0  0  0  0
  9 13  1  0  0  0  0
 10 14  2  0  0  0  0
 13 15  2  0  0  0  0
 13 16  1  0  0  0  0
 14 17  1  0  0  0  0
 15 18  1  0  0  0  0
 16 19  2  0  0  0  0
 18 20  2  0  0  0  0
 18 21  1  0  0  0  0
 20 22  1  0  0  0  0
 21 23  2  0  0  0  0
 21 24  1  0  0  0  0
 24 25  1  0  0  0  0
 24 26  1  0  0  0  0
 25 27  2  0  0  0  0
 25 28  1  0  0  0  0
 26 29  1  0  0  0  0
 26 30  2  0  0  0  0
 27 31  1  0  0  0  0
 28 32  2  0  0  0  0
 29 33  2  0  0  0  0
 29 34  1  0  0  0  0
 30 35  1  0  0  0  0
 31 36  2  0  0  0  0
 33 37  1  0  0  0  0
 34 38  2  0  0  0  0
 36 39  1  0  0  0  0
 37 40  2  0  0  0  0
 38 41  1  0  0  0  0
 41 42  2  0  0  0  0
 41 43  1  0  0  0  0
 43 44  1  0  0  0  0
 44 45  1  0  0  0  0
 45 46  2  0  0  0  0
 45 47  2  0  0  0  0
 45 48  1  0  0  0  0
 48 49  2  0  0  0  0
 48 50  1  0  0  0  0
 49 51  1  0  0  0  0
 50 52  2  0  0  0  0
 51 53  2  0  0  0  0
 53 54  1  0  0  0  0
 11 14  1  0  0  0  0
 19 20  1  0  0  0  0
 22 23  1  0  0  0  0
 32 36  1  0  0  0  0
 33 35  1  0  0  0  0
 38 40  1  0  0  0  0
 52 53  1  0  0  0  0
M  END
>  <S/N>
437

>  <Compound ID>
C_454

>  <PubChem CID>
155527576

>  <Isomeric SMILES>
CC1=CC=C(C=C1)C(C2=CNC3=C2C=C(C=C3)C(=O)NNS(=O)(=O)C4=CC=C(C=C4)C)C5=CNC6=C5C=C(C=C6)C(=O)NNS(=O)(=O)C7=CC=C(C=C7)C

>  <IC50 (�M)>
0.1

>  <pIC50>
7

$$$$
C_455
Actelion Java MolfileCreator 1.0

 37 41  0  0  0  0  0  0  0  0999 V2000
    4.4347    0.9945   -0.0000 S   0  0  0  0  0  0  0  0  0  0  0  0
    4.3301   -0.0000   -0.0000 C   0  0  0  0  0  0  0  0  0  0  0  0
    5.4128    1.2024   -0.0000 C   0  0  0  0  0  0  0  0  0  0  0  0
    5.2437   -0.4067   -0.0000 N   0  0  0  0  0  0  0  0  0  0  0  0
    3.4641   -0.5000   -0.0000 N   0  0  0  0  0  0  0  0  0  0  0  0
    5.9128    0.3364   -0.0000 C   0  0  0  0  0  0  0  0  0  0  0  0
    2.5981   -0.0000   -0.0000 C   0  0  0  0  0  0  0  0  0  0  0  0
    6.9073    0.2319   -0.0000 C   0  0  0  0  0  0  0  0  0  0  0  0
    2.5981    1.0000   -0.0000 O   0  0  0  0  0  0  0  0  0  0  0  0
    1.7321   -0.5000   -0.0000 C   0  0  0  0  0  0  0  0  0  0  0  0
    7.3141   -0.6817   -0.0000 C   0  0  0  0  0  0  0  0  0  0  0  0
    7.4951    1.0409   -0.0000 C   0  0  0  0  0  0  0  0  0  0  0  0
    0.8660   -0.0000   -0.0000 S   0  0  0  0  0  0  0  0  0  0  0  0
    8.3086   -0.7862   -0.0000 C   0  0  0  0  0  0  0  0  0  0  0  0
    8.4896    0.9364   -0.0000 C   0  0  0  0  0  0  0  0  0  0  0  0
    0.0000   -0.5000   -0.0000 C   0  0  0  0  0  0  0  0  0  0  0  0
    8.8964    0.0228   -0.0000 C   0  0  0  0  0  0  0  0  0  0  0  0
   -0.8660    0.0000   -0.0000 N   0  0  0  0  0  0  0  0  0  0  0  0
   -0.0000   -1.5000   -0.0000 N   0  0  0  0  0  0  0  0  0  0  0  0
    9.8909   -0.0817   -0.0000 F   0  0  0  0  0  0  0  0  0  0  0  0
   -1.7321   -0.5000   -0.0000 N   0  0  0  0  0  0  0  0  0  0  0  0
   -0.8660   -2.0000   -0.0000 C   0  0  0  0  0  0  0  0  0  0  0  0
   -1.7321   -1.5000   -0.0000 C   0  0  0  0  0  0  0  0  0  0  0  0
   -0.8660   -3.0000   -0.0000 C   0  0  0  0  0  0  0  0  0  0  0  0
   -2.5981   -2.0000   -0.0000 C   0  0  0  0  0  0  0  0  0  0  0  0
   -1.7321   -3.5000   -0.0000 C   0  0  0  0  0  0  0  0  0  0  0  0
   -0.0000   -3.5000   -0.0000 C   0  0  0  0  0  0  0  0  0  0  0  0
   -3.4641   -1.5000   -0.0000 C   0  0  0  0  0  0  0  0  0  0  0  0
   -2.5981   -3.0000   -0.0000 C   0  0  0  0  0  0  0  0  0  0  0  0
   -1.7321   -4.5000   -0.0000 C   0  0  0  0  0  0  0  0  0  0  0  0
   -0.0000   -4.5000   -0.0000 C   0  0  0  0  0  0  0  0  0  0  0  0
   -4.3301   -2.0000   -0.0000 C   0  0  0  0  0  0  0  0  0  0  0  0
   -3.4641   -3.5000   -0.0000 C   0  0  0  0  0  0  0  0  0  0  0  0
   -0.8660   -5.0000   -0.0000 C   0  0  0  0  0  0  0  0  0  0  0  0
   -4.3301   -3.0000   -0.0000 C   0  0  0  0  0  0  0  0  0  0  0  0
   -0.8660   -6.0000   -0.0000 F   0  0  0  0  0  0  0  0  0  0  0  0
   -5.1962   -3.5000   -0.0000 F   0  0  0  0  0  0  0  0  0  0  0  0
  1  2  1  0  0  0  0
  1  3  1  0  0  0  0
  2  4  2  0  0  0  0
  2  5  1  0  0  0  0
  3  6  2  0  0  0  0
  5  7  1  0  0  0  0
  6  8  1  0  0  0  0
  7  9  2  0  0  0  0
  7 10  1  0  0  0  0
  8 11  2  0  0  0  0
  8 12  1  0  0  0  0
 10 13  1  0  0  0  0
 11 14  1  0  0  0  0
 12 15  2  0  0  0  0
 13 16  1  0  0  0  0
 14 17  2  0  0  0  0
 16 18  2  0  0  0  0
 16 19  1  0  0  0  0
 17 20  1  0  0  0  0
 18 21  1  0  0  0  0
 19 22  2  0  0  0  0
 21 23  2  0  0  0  0
 22 24  1  0  0  0  0
 23 25  1  0  0  0  0
 24 26  2  0  0  0  0
 24 27  1  0  0  0  0
 25 28  2  0  0  0  0
 25 29  1  0  0  0  0
 26 30  1  0  0  0  0
 27 31  2  0  0  0  0
 28 32  1  0  0  0  0
 29 33  2  0  0  0  0
 30 34  2  0  0  0  0
 32 35  2  0  0  0  0
 34 36  1  0  0  0  0
 35 37  1  0  0  0  0
  4  6  1  0  0  0  0
 15 17  1  0  0  0  0
 22 23  1  0  0  0  0
 31 34  1  0  0  0  0
 33 35  1  0  0  0  0
M  END
>  <S/N>
438

>  <Compound ID>
C_455

>  <PubChem CID>
155527615

>  <Isomeric SMILES>
C1=CC(=CC=C1C2=CSC(=N2)NC(=O)CSC3=NC(=C(N=N3)C4=CC=C(C=C4)F)C5=CC=C(C=C5)F)F

>  <IC50 (�M)>
2.8

>  <pIC50>
5.55

$$$$
C_456
Actelion Java MolfileCreator 1.0

 39 45  0  0  0  0  0  0  0  0999 V2000
   -1.0809   -7.7213   -0.0000 Cl  0  0  0  0  0  0  0  0  0  0  0  0
   -1.9625   -6.5078   -0.0000 C   0  0  0  0  0  0  0  0  0  0  0  0
   -1.3524   -5.1375   -0.0000 C   0  0  0  0  0  0  0  0  0  0  0  0
   -3.4543   -6.6646   -0.0000 C   0  0  0  0  0  0  0  0  0  0  0  0
   -2.2341   -3.9240   -0.0000 C   0  0  0  0  0  0  0  0  0  0  0  0
   -4.3360   -5.4511   -0.0000 C   0  0  0  0  0  0  0  0  0  0  0  0
   -1.6240   -2.5537   -0.0000 C   0  0  0  0  0  0  0  0  0  0  0  0
   -3.7259   -4.0808   -0.0000 C   0  0  0  0  0  0  0  0  0  0  0  0
   -2.3740   -1.2546   -0.0000 N   0  0  0  0  0  0  0  0  0  0  0  0
   -0.1568   -2.2418   -0.0000 C   0  0  0  0  0  0  0  0  0  0  0  0
   -1.3703   -0.1399   -0.0000 C   0  0  0  0  0  0  0  0  0  0  0  0
    0.9579   -3.2455   -0.0000 C   0  0  0  0  0  0  0  0  0  0  0  0
    0.0000   -0.7500   -0.0000 C   0  0  0  0  0  0  0  0  0  0  0  0
   -1.5271    1.3519   -0.0000 C   0  0  0  0  0  0  0  0  0  0  0  0
    0.8011   -4.7373   -0.0000 N   0  0  0  0  0  0  0  0  0  0  0  0
    2.4251   -2.9336   -0.0000 N   0  0  0  0  0  0  0  0  0  0  0  0
    1.2135    0.1317   -0.0000 C   0  0  0  0  0  0  0  0  0  0  0  0
   -0.3136    2.2336   -0.0000 C   0  0  0  0  0  0  0  0  0  0  0  0
    2.1715   -5.3474   -0.0000 C   0  0  0  0  0  0  0  0  0  0  0  0
    3.0353   -1.5633   -0.0000 C   0  0  0  0  0  0  0  0  0  0  0  0
    3.1751   -4.2326   -0.0000 C   0  0  0  0  0  0  0  0  0  0  0  0
    1.0567    1.6235   -0.0000 C   0  0  0  0  0  0  0  0  0  0  0  0
    2.4833   -6.8146   -0.0000 C   0  0  0  0  0  0  0  0  0  0  0  0
    4.5270   -1.4065   -0.0000 C   0  0  0  0  0  0  0  0  0  0  0  0
    2.1536   -0.3498   -0.0000 C   0  0  0  0  0  0  0  0  0  0  0  0
    4.6669   -4.3894   -0.0000 C   0  0  0  0  0  0  0  0  0  0  0  0
    1.3686   -7.8183   -0.0000 C   0  0  0  0  0  0  0  0  0  0  0  0
    3.9099   -7.2781   -0.0000 C   0  0  0  0  0  0  0  0  0  0  0  0
    5.1371   -0.0362   -0.0000 C   0  0  0  0  0  0  0  0  0  0  0  0
    2.7637    1.0206   -0.0000 C   0  0  0  0  0  0  0  0  0  0  0  0
    5.2770   -5.7598   -0.0000 C   0  0  0  0  0  0  0  0  0  0  0  0
    5.5486   -3.1759   -0.0000 C   0  0  0  0  0  0  0  0  0  0  0  0
    1.6805   -9.2855   -0.0000 C   0  0  0  0  0  0  0  0  0  0  0  0
    4.2218   -8.7453   -0.0000 C   0  0  0  0  0  0  0  0  0  0  0  0
    4.2555    1.1773   -0.0000 C   0  0  0  0  0  0  0  0  0  0  0  0
    6.7688   -5.9166   -0.0000 C   0  0  0  0  0  0  0  0  0  0  0  0
    7.0404   -3.3327   -0.0000 C   0  0  0  0  0  0  0  0  0  0  0  0
    3.1071   -9.7490   -0.0000 C   0  0  0  0  0  0  0  0  0  0  0  0
    7.6505   -4.7030   -0.0000 C   0  0  0  0  0  0  0  0  0  0  0  0
  1  2  1  0  0  0  0
  2  3  2  0  0  0  0
  2  4  1  0  0  0  0
  3  5  1  0  0  0  0
  4  6  2  0  0  0  0
  5  7  1  0  0  0  0
  5  8  2  0  0  0  0
  7  9  1  0  0  0  0
  7 10  2  0  0  0  0
  9 11  1  0  0  0  0
 10 12  1  0  0  0  0
 10 13  1  0  0  0  0
 11 14  2  0  0  0  0
 12 15  2  0  0  0  0
 12 16  1  0  0  0  0
 13 17  2  0  0  0  0
 14 18  1  0  0  0  0
 15 19  1  0  0  0  0
 16 20  1  0  0  0  0
 16 21  1  0  0  0  0
 17 22  1  0  0  0  0
 19 23  1  0  0  0  0
 20 24  2  0  0  0  0
 20 25  1  0  0  0  0
 21 26  1  0  0  0  0
 23 27  2  0  0  0  0
 23 28  1  0  0  0  0
 24 29  1  0  0  0  0
 25 30  2  0  0  0  0
 26 31  2  0  0  0  0
 26 32  1  0  0  0  0
 27 33  1  0  0  0  0
 28 34  2  0  0  0  0
 29 35  2  0  0  0  0
 31 36  1  0  0  0  0
 32 37  2  0  0  0  0
 33 38  2  0  0  0  0
 36 39  2  0  0  0  0
  6  8  1  0  0  0  0
 11 13  1  0  0  0  0
 18 22  2  0  0  0  0
 19 21  2  0  0  0  0
 30 35  1  0  0  0  0
 34 38  1  0  0  0  0
 37 39  1  0  0  0  0
M  END
>  <S/N>
439

>  <Compound ID>
C_456

>  <PubChem CID>
155527901

>  <Isomeric SMILES>
C1=CC=C(C=C1)C2=C(N(C(=N2)C3=C(NC4=CC=CC=C43)C5=CC(=CC=C5)Cl)C6=CC=CC=C6)C7=CC=CC=C7

>  <IC50 (�M)>
8.3

>  <pIC50>
5.08

$$$$
C_457
Actelion Java MolfileCreator 1.0

 29 32  0  0  0  0  0  0  0  0999 V2000
    3.4641    5.5000   -0.0000 Br  0  0  0  0  0  0  0  0  0  0  0  0
    3.4641    4.5000   -0.0000 C   0  0  0  0  0  0  0  0  0  0  0  0
    2.5981    4.0000   -0.0000 C   0  0  0  0  0  0  0  0  0  0  0  0
    4.3301    4.0000   -0.0000 C   0  0  0  0  0  0  0  0  0  0  0  0
    2.5981    3.0000   -0.0000 C   0  0  0  0  0  0  0  0  0  0  0  0
    4.3301    3.0000   -0.0000 C   0  0  0  0  0  0  0  0  0  0  0  0
    3.4641    2.5000   -0.0000 C   0  0  0  0  0  0  0  0  0  0  0  0
    3.4641    1.5000   -0.0000 C   0  0  0  0  0  0  0  0  0  0  0  0
    2.5981    1.0000   -0.0000 N   0  0  0  0  0  0  0  0  0  0  0  0
    4.3301    1.0000   -0.0000 C   0  0  0  0  0  0  0  0  0  0  0  0
    2.5981   -0.0000   -0.0000 C   0  0  0  0  0  0  0  0  0  0  0  0
    4.3301   -0.0000   -0.0000 C   0  0  0  0  0  0  0  0  0  0  0  0
    1.7321   -0.5000   -0.0000 S   0  0  0  0  0  0  0  0  0  0  0  0
    3.4641   -0.5000   -0.0000 N   0  0  0  0  0  0  0  0  0  0  0  0
    5.1962   -0.5000   -0.0000 C   0  0  0  0  0  0  0  0  0  0  0  0
    0.8660   -0.0000   -0.0000 C   0  0  0  0  0  0  0  0  0  0  0  0
    5.1962   -1.5000   -0.0000 C   0  0  0  0  0  0  0  0  0  0  0  0
    6.0622   -0.0000   -0.0000 C   0  0  0  0  0  0  0  0  0  0  0  0
    0.0000   -0.5000   -0.0000 C   0  0  0  0  0  0  0  0  0  0  0  0
    6.0622   -2.0000   -0.0000 C   0  0  0  0  0  0  0  0  0  0  0  0
    6.9282   -0.5000   -0.0000 C   0  0  0  0  0  0  0  0  0  0  0  0
   -0.8660    0.0000   -0.0000 C   0  0  0  0  0  0  0  0  0  0  0  0
   -0.0000   -1.5000   -0.0000 C   0  0  0  0  0  0  0  0  0  0  0  0
    6.9282   -1.5000   -0.0000 C   0  0  0  0  0  0  0  0  0  0  0  0
   -1.7321   -0.5000   -0.0000 C   0  0  0  0  0  0  0  0  0  0  0  0
   -0.8660   -2.0000   -0.0000 C   0  0  0  0  0  0  0  0  0  0  0  0
    7.7942   -2.0000   -0.0000 Br  0  0  0  0  0  0  0  0  0  0  0  0
   -1.7321   -1.5000   -0.0000 C   0  0  0  0  0  0  0  0  0  0  0  0
   -2.5981   -2.0000   -0.0000 Cl  0  0  0  0  0  0  0  0  0  0  0  0
  1  2  1  0  0  0  0
  2  3  2  0  0  0  0
  2  4  1  0  0  0  0
  3  5  1  0  0  0  0
  4  6  2  0  0  0  0
  5  7  2  0  0  0  0
  7  8  1  0  0  0  0
  8  9  2  0  0  0  0
  8 10  1  0  0  0  0
  9 11  1  0  0  0  0
 10 12  2  0  0  0  0
 11 13  1  0  0  0  0
 11 14  2  0  0  0  0
 12 15  1  0  0  0  0
 13 16  1  0  0  0  0
 15 17  2  0  0  0  0
 15 18  1  0  0  0  0
 16 19  1  0  0  0  0
 17 20  1  0  0  0  0
 18 21  2  0  0  0  0
 19 22  2  0  0  0  0
 19 23  1  0  0  0  0
 20 24  2  0  0  0  0
 22 25  1  0  0  0  0
 23 26  2  0  0  0  0
 24 27  1  0  0  0  0
 25 28  2  0  0  0  0
 28 29  1  0  0  0  0
  6  7  1  0  0  0  0
 12 14  1  0  0  0  0
 21 24  1  0  0  0  0
 26 28  1  0  0  0  0
M  END
>  <S/N>
440

>  <Compound ID>
C_457

>  <PubChem CID>
155527937

>  <Isomeric SMILES>
C1=CC(=CC=C1CSC2=NC(=CC(=N2)C3=CC=C(C=C3)Br)C4=CC=C(C=C4)Br)Cl

>  <IC50 (�M)>
19

>  <pIC50>
4.72

$$$$
C_458
Actelion Java MolfileCreator 1.0

 33 37  0  0  0  0  0  0  0  0999 V2000
    2.7026    0.9945   -0.0000 S   0  0  0  0  0  0  0  0  0  0  0  0
    2.5981   -0.0000   -0.0000 C   0  0  0  0  0  0  0  0  0  0  0  0
    3.6808    1.2024   -0.0000 C   0  0  0  0  0  0  0  0  0  0  0  0
    3.5116   -0.4067   -0.0000 N   0  0  0  0  0  0  0  0  0  0  0  0
    1.7321   -0.5000   -0.0000 N   0  0  0  0  0  0  0  0  0  0  0  0
    4.1808    0.3364   -0.0000 C   0  0  0  0  0  0  0  0  0  0  0  0
    0.8660   -0.0000   -0.0000 N   0  0  0  0  0  0  0  0  0  0  0  0
    5.1753    0.2319   -0.0000 C   0  0  0  0  0  0  0  0  0  0  0  0
    0.0000   -0.5000   -0.0000 C   0  0  0  0  0  0  0  0  0  0  0  0
    5.5820   -0.6817   -0.0000 C   0  0  0  0  0  0  0  0  0  0  0  0
    5.7631    1.0409   -0.0000 C   0  0  0  0  0  0  0  0  0  0  0  0
   -0.9135   -0.0933   -0.0000 C   0  0  0  0  0  0  0  0  0  0  0  0
   -0.1045   -1.4945   -0.0000 C   0  0  0  0  0  0  0  0  0  0  0  0
    6.5765   -0.7862   -0.0000 C   0  0  0  0  0  0  0  0  0  0  0  0
    6.7576    0.9364   -0.0000 C   0  0  0  0  0  0  0  0  0  0  0  0
   -1.1215    0.8849   -0.0000 O   0  0  0  0  0  0  0  0  0  0  0  0
   -1.5827   -0.8364   -0.0000 N   0  0  0  0  0  0  0  0  0  0  0  0
   -1.0827   -1.7024   -0.0000 C   0  0  0  0  0  0  0  0  0  0  0  0
    0.5646   -2.2377   -0.0000 C   0  0  0  0  0  0  0  0  0  0  0  0
    7.1643    0.0228   -0.0000 C   0  0  0  0  0  0  0  0  0  0  0  0
   -2.5772   -0.7319   -0.0000 C   0  0  0  0  0  0  0  0  0  0  0  0
   -1.3917   -2.6535   -0.0000 C   0  0  0  0  0  0  0  0  0  0  0  0
    0.2556   -3.1887   -0.0000 C   0  0  0  0  0  0  0  0  0  0  0  0
    8.1588   -0.0817   -0.0000 O   0  0  0  0  0  0  0  0  0  0  0  0
   -3.1650   -1.5409   -0.0000 C   0  0  0  0  0  0  0  0  0  0  0  0
   -0.7226   -3.3966   -0.0000 C   0  0  0  0  0  0  0  0  0  0  0  0
    0.9247   -3.9319   -0.0000 C   0  0  0  0  0  0  0  0  0  0  0  0
   -4.1595   -1.4364   -0.0000 C   0  0  0  0  0  0  0  0  0  0  0  0
   -2.7582   -2.4544   -0.0000 C   0  0  0  0  0  0  0  0  0  0  0  0
   -4.5662   -0.5228   -0.0000 F   0  0  0  0  0  0  0  0  0  0  0  0
   -4.7473   -2.2454   -0.0000 C   0  0  0  0  0  0  0  0  0  0  0  0
   -3.3460   -3.2635   -0.0000 C   0  0  0  0  0  0  0  0  0  0  0  0
   -4.3406   -3.1589   -0.0000 C   0  0  0  0  0  0  0  0  0  0  0  0
  1  2  1  0  0  0  0
  1  3  1  0  0  0  0
  2  4  2  0  0  0  0
  2  5  1  0  0  0  0
  3  6  2  0  0  0  0
  5  7  2  3  0  0  0
  6  8  1  0  0  0  0
  7  9  1  0  0  0  0
  8 10  2  0  0  0  0
  8 11  1  0  0  0  0
  9 12  2  0  0  0  0
  9 13  1  0  0  0  0
 10 14  1  0  0  0  0
 11 15  2  0  0  0  0
 12 16  1  0  0  0  0
 12 17  1  0  0  0  0
 13 18  2  0  0  0  0
 13 19  1  0  0  0  0
 14 20  2  0  0  0  0
 17 21  1  0  0  0  0
 18 22  1  0  0  0  0
 19 23  2  0  0  0  0
 20 24  1  0  0  0  0
 21 25  1  0  0  0  0
 22 26  2  0  0  0  0
 23 27  1  0  0  0  0
 25 28  2  0  0  0  0
 25 29  1  0  0  0  0
 28 30  1  0  0  0  0
 28 31  1  0  0  0  0
 29 32  2  0  0  0  0
 31 33  2  0  0  0  0
  4  6  1  0  0  0  0
 15 20  1  0  0  0  0
 17 18  1  0  0  0  0
 23 26  1  0  0  0  0
 32 33  1  0  0  0  0
M  END
>  <S/N>
441

>  <Compound ID>
C_458

>  <PubChem CID>
155527969

>  <Isomeric SMILES>
CC1=CC2=C(C=C1)N(C(=C2N=NC3=NC(=CS3)C4=CC=C(C=C4)O)O)CC5=CC=CC=C5F

>  <IC50 (�M)>
5.3

>  <pIC50>
5.28

$$$$
C_459
Actelion Java MolfileCreator 1.0

 58 64  0  0  0  0  0  0  0  0999 V2000
    5.1962   -0.7500   -0.0000 S   0  0  0  0  0  0  0  0  0  0  0  0
    4.4462   -2.0490   -0.0000 O   0  0  0  0  0  0  0  0  0  0  0  0
    5.9462   -2.0490   -0.0000 O   0  0  0  0  0  0  0  0  0  0  0  0
    3.8971   -0.0000   -0.0000 N   0  0  0  0  0  0  0  0  0  0  0  0
    6.4952   -0.0000   -0.0000 C   0  0  0  0  0  0  0  0  0  0  0  0
    2.5981   -0.7500   -0.0000 N   0  0  0  0  0  0  0  0  0  0  0  0
    7.7942   -0.7500   -0.0000 C   0  0  0  0  0  0  0  0  0  0  0  0
    6.4952    1.5000   -0.0000 C   0  0  0  0  0  0  0  0  0  0  0  0
    1.2990   -0.0000   -0.0000 C   0  0  0  0  0  0  0  0  0  0  0  0
    9.0933   -0.0000   -0.0000 C   0  0  0  0  0  0  0  0  0  0  0  0
    7.7942    2.2500   -0.0000 C   0  0  0  0  0  0  0  0  0  0  0  0
    1.2990    1.5000   -0.0000 O   0  0  0  0  0  0  0  0  0  0  0  0
    0.0000   -0.7500   -0.0000 C   0  0  0  0  0  0  0  0  0  0  0  0
   10.3923   -0.7500   -0.0000 N   0  0  0  0  0  0  0  0  0  0  0  0
    9.0933    1.5000   -0.0000 C   0  0  0  0  0  0  0  0  0  0  0  0
   -0.0000   -2.2500   -0.0000 C   0  0  0  0  0  0  0  0  0  0  0  0
   -1.2990    0.0000   -0.0000 C   0  0  0  0  0  0  0  0  0  0  0  0
   10.3923   -2.2500   -0.0000 O   0  0  0  0  0  0  0  0  0  0  0  0
   11.6914   -0.0000   -0.0000 O   0  0  0  0  0  0  0  0  0  0  0  0
   -1.2990   -3.0000   -0.0000 C   0  0  0  0  0  0  0  0  0  0  0  0
   -2.5981   -0.7500   -0.0000 C   0  0  0  0  0  0  0  0  0  0  0  0
   -2.5981   -2.2500   -0.0000 C   0  0  0  0  0  0  0  0  0  0  0  0
   -1.6109   -4.4672   -0.0000 C   0  0  0  0  0  0  0  0  0  0  0  0
   -3.7128   -3.2537   -0.0000 N   0  0  0  0  0  0  0  0  0  0  0  0
   -3.1027   -4.6240   -0.0000 C   0  0  0  0  0  0  0  0  0  0  0  0
   -0.6072   -5.5819   -0.0000 C   0  0  0  0  0  0  0  0  0  0  0  0
   -1.0707   -7.0085   -0.0000 C   0  0  0  0  0  0  0  0  0  0  0  0
    0.8600   -5.2701   -0.0000 C   0  0  0  0  0  0  0  0  0  0  0  0
   -2.5380   -7.3204   -0.0000 C   0  0  0  0  0  0  0  0  0  0  0  0
   -0.0670   -8.1233   -0.0000 C   0  0  0  0  0  0  0  0  0  0  0  0
    1.9747   -6.2738   -0.0000 C   0  0  0  0  0  0  0  0  0  0  0  0
    1.4701   -3.8998   -0.0000 C   0  0  0  0  0  0  0  0  0  0  0  0
   -3.0015   -8.7470   -0.0000 C   0  0  0  0  0  0  0  0  0  0  0  0
   -0.5306   -9.5498   -0.0000 C   0  0  0  0  0  0  0  0  0  0  0  0
    3.2738   -5.5238   -0.0000 C   0  0  0  0  0  0  0  0  0  0  0  0
    1.9747   -7.7738   -0.0000 C   0  0  0  0  0  0  0  0  0  0  0  0
    2.9619   -4.0566   -0.0000 N   0  0  0  0  0  0  0  0  0  0  0  0
   -1.9978   -9.8617   -0.0000 C   0  0  0  0  0  0  0  0  0  0  0  0
    4.5728   -6.2738   -0.0000 C   0  0  0  0  0  0  0  0  0  0  0  0
    3.2738   -8.5238   -0.0000 C   0  0  0  0  0  0  0  0  0  0  0  0
   -2.4613  -11.2883   -0.0000 C   0  0  0  0  0  0  0  0  0  0  0  0
    4.5728   -7.7738   -0.0000 C   0  0  0  0  0  0  0  0  0  0  0  0
    3.2738  -10.0238   -0.0000 C   0  0  0  0  0  0  0  0  0  0  0  0
    4.5728  -10.7738   -0.0000 O   0  0  0  0  0  0  0  0  0  0  0  0
    1.9747  -10.7738   -0.0000 N   0  0  0  0  0  0  0  0  0  0  0  0
    1.9747  -12.2738   -0.0000 N   0  0  0  0  0  0  0  0  0  0  0  0
    0.6757  -13.0238   -0.0000 S   0  0  0  0  0  0  0  0  0  0  0  0
   -0.0743  -11.7248   -0.0000 O   0  0  0  0  0  0  0  0  0  0  0  0
   -0.8243  -13.0238   -0.0000 O   0  0  0  0  0  0  0  0  0  0  0  0
    0.6757  -14.5238   -0.0000 C   0  0  0  0  0  0  0  0  0  0  0  0
   -0.6233  -15.2738   -0.0000 C   0  0  0  0  0  0  0  0  0  0  0  0
    1.9747  -15.2738   -0.0000 C   0  0  0  0  0  0  0  0  0  0  0  0
   -0.6233  -16.7738   -0.0000 C   0  0  0  0  0  0  0  0  0  0  0  0
    1.9747  -16.7738   -0.0000 C   0  0  0  0  0  0  0  0  0  0  0  0
   -1.9224  -17.5238   -0.0000 N   0  0  0  0  0  0  0  0  0  0  0  0
    0.6757  -17.5238   -0.0000 C   0  0  0  0  0  0  0  0  0  0  0  0
   -3.2214  -16.7738   -0.0000 O   0  0  0  0  0  0  0  0  0  0  0  0
   -1.9224  -19.0238   -0.0000 O   0  0  0  0  0  0  0  0  0  0  0  0
  1  2  2  0  0  0  0
  1  3  2  0  0  0  0
  1  4  1  0  0  0  0
  1  5  1  0  0  0  0
  4  6  1  0  0  0  0
  5  7  2  0  0  0  0
  5  8  1  0  0  0  0
  6  9  1  0  0  0  0
  7 10  1  0  0  0  0
  8 11  2  0  0  0  0
  9 12  2  0  0  0  0
  9 13  1  0  0  0  0
 10 14  1  0  0  0  0
 10 15  2  0  0  0  0
 13 16  2  0  0  0  0
 13 17  1  0  0  0  0
 14 18  2  0  0  0  0
 14 19  1  0  0  0  0
 16 20  1  0  0  0  0
 17 21  2  0  0  0  0
 20 22  2  0  0  0  0
 20 23  1  0  0  0  0
 22 24  1  0  0  0  0
 23 25  2  0  0  0  0
 23 26  1  0  0  0  0
 26 27  1  0  0  0  0
 26 28  1  0  0  0  0
 27 29  2  0  0  0  0
 27 30  1  0  0  0  0
 28 31  1  0  0  0  0
 28 32  2  0  0  0  0
 29 33  1  0  0  0  0
 30 34  2  0  0  0  0
 31 35  2  0  0  0  0
 31 36  1  0  0  0  0
 32 37  1  0  0  0  0
 33 38  2  0  0  0  0
 35 39  1  0  0  0  0
 36 40  2  0  0  0  0
 38 41  1  0  0  0  0
 39 42  2  0  0  0  0
 40 43  1  0  0  0  0
 43 44  2  0  0  0  0
 43 45  1  0  0  0  0
 45 46  1  0  0  0  0
 46 47  1  0  0  0  0
 47 48  2  0  0  0  0
 47 49  2  0  0  0  0
 47 50  1  0  0  0  0
 50 51  2  0  0  0  0
 50 52  1  0  0  0  0
 51 53  1  0  0  0  0
 52 54  2  0  0  0  0
 53 55  1  0  0  0  0
 53 56  2  0  0  0  0
 55 57  2  0  0  0  0
 55 58  1  0  0  0  0
 11 15  1  0  0  0  0
 21 22  1  0  0  0  0
 24 25  1  0  0  0  0
 34 38  1  0  0  0  0
 35 37  1  0  0  0  0
 40 42  1  0  0  0  0
 54 56  1  0  0  0  0
M  CHG  4  14   1  19  -1  55   1  58  -1
M  END
>  <S/N>
442

>  <Compound ID>
C_459

>  <PubChem CID>
155528082

>  <Isomeric SMILES>
CC1=CC=C(C=C1)C(C2=CNC3=C2C=C(C=C3)C(=O)NNS(=O)(=O)C4=CC=CC(=C4)[N+](=O)[O-])C5=CNC6=C5C=C(C=C6)C(=O)NNS(=O)(=O)C7=CC=CC(=C7)[N+](=O)[O-]

>  <IC50 (�M)>
2.1

>  <pIC50>
5.68

$$$$
C_460
Actelion Java MolfileCreator 1.0

 25 28  0  0  0  0  0  0  0  0999 V2000
    2.7026    0.9945   -0.0000 S   0  0  0  0  0  0  0  0  0  0  0  0
    2.5981   -0.0000   -0.0000 C   0  0  0  0  0  0  0  0  0  0  0  0
    3.6808    1.2024   -0.0000 C   0  0  0  0  0  0  0  0  0  0  0  0
    3.5116   -0.4067   -0.0000 N   0  0  0  0  0  0  0  0  0  0  0  0
    1.7321   -0.5000   -0.0000 N   0  0  0  0  0  0  0  0  0  0  0  0
    4.1808    0.3364   -0.0000 C   0  0  0  0  0  0  0  0  0  0  0  0
    0.8660   -0.0000   -0.0000 N   0  0  0  0  0  0  0  0  0  0  0  0
    5.1753    0.2319   -0.0000 C   0  0  0  0  0  0  0  0  0  0  0  0
    0.0000   -0.5000   -0.0000 C   0  0  0  0  0  0  0  0  0  0  0  0
    5.5820   -0.6817   -0.0000 C   0  0  0  0  0  0  0  0  0  0  0  0
    5.7631    1.0409   -0.0000 C   0  0  0  0  0  0  0  0  0  0  0  0
   -0.9135   -0.0933   -0.0000 C   0  0  0  0  0  0  0  0  0  0  0  0
   -0.1045   -1.4945   -0.0000 C   0  0  0  0  0  0  0  0  0  0  0  0
    6.5765   -0.7862   -0.0000 C   0  0  0  0  0  0  0  0  0  0  0  0
    6.7576    0.9364   -0.0000 C   0  0  0  0  0  0  0  0  0  0  0  0
   -1.1215    0.8849   -0.0000 O   0  0  0  0  0  0  0  0  0  0  0  0
   -1.5827   -0.8364   -0.0000 N   0  0  0  0  0  0  0  0  0  0  0  0
   -1.0827   -1.7024   -0.0000 C   0  0  0  0  0  0  0  0  0  0  0  0
    0.5646   -2.2377   -0.0000 C   0  0  0  0  0  0  0  0  0  0  0  0
    7.1643    0.0228   -0.0000 C   0  0  0  0  0  0  0  0  0  0  0  0
   -1.3917   -2.6535   -0.0000 C   0  0  0  0  0  0  0  0  0  0  0  0
    0.2556   -3.1887   -0.0000 C   0  0  0  0  0  0  0  0  0  0  0  0
    8.1588   -0.0817   -0.0000 F   0  0  0  0  0  0  0  0  0  0  0  0
   -0.7226   -3.3966   -0.0000 C   0  0  0  0  0  0  0  0  0  0  0  0
    0.9247   -3.9319   -0.0000 F   0  0  0  0  0  0  0  0  0  0  0  0
  1  2  1  0  0  0  0
  1  3  1  0  0  0  0
  2  4  2  0  0  0  0
  2  5  1  0  0  0  0
  3  6  2  0  0  0  0
  5  7  2  3  0  0  0
  6  8  1  0  0  0  0
  7  9  1  0  0  0  0
  8 10  2  0  0  0  0
  8 11  1  0  0  0  0
  9 12  2  0  0  0  0
  9 13  1  0  0  0  0
 10 14  1  0  0  0  0
 11 15  2  0  0  0  0
 12 16  1  0  0  0  0
 12 17  1  0  0  0  0
 13 18  2  0  0  0  0
 13 19  1  0  0  0  0
 14 20  2  0  0  0  0
 18 21  1  0  0  0  0
 19 22  2  0  0  0  0
 20 23  1  0  0  0  0
 21 24  2  0  0  0  0
 22 25  1  0  0  0  0
  4  6  1  0  0  0  0
 15 20  1  0  0  0  0
 17 18  1  0  0  0  0
 22 24  1  0  0  0  0
M  END
>  <S/N>
443

>  <Compound ID>
C_460

>  <PubChem CID>
155528290

>  <Isomeric SMILES>
C1=CC(=CC=C1C2=CSC(=N2)N=NC3=C(NC4=C3C=C(C=C4)F)O)F

>  <IC50 (�M)>
5.3

>  <pIC50>
5.28

$$$$
C_461
Actelion Java MolfileCreator 1.0

 23 25  0  0  0  0  0  0  0  0999 V2000
    5.1962    2.2500   -0.0000 F   0  0  0  0  0  0  0  0  0  0  0  0
    6.4952    1.5000   -0.0000 C   0  0  0  0  0  0  0  0  0  0  0  0
    6.4952   -0.0000   -0.0000 C   0  0  0  0  0  0  0  0  0  0  0  0
    7.7942    2.2500   -0.0000 C   0  0  0  0  0  0  0  0  0  0  0  0
    7.7942   -0.7500   -0.0000 C   0  0  0  0  0  0  0  0  0  0  0  0
    5.1962   -0.7500   -0.0000 C   0  0  0  0  0  0  0  0  0  0  0  0
    9.0933    1.5000   -0.0000 C   0  0  0  0  0  0  0  0  0  0  0  0
    9.0933    0.0000   -0.0000 C   0  0  0  0  0  0  0  0  0  0  0  0
    3.8971   -0.0000   -0.0000 N   0  0  0  0  0  0  0  0  0  0  0  0
    2.5981   -0.7500   -0.0000 N   0  0  0  0  0  0  0  0  0  0  0  0
    1.2990   -0.0000   -0.0000 C   0  0  0  0  0  0  0  0  0  0  0  0
    1.2990    1.5000   -0.0000 O   0  0  0  0  0  0  0  0  0  0  0  0
    0.0000   -0.7500   -0.0000 C   0  0  0  0  0  0  0  0  0  0  0  0
   -1.2990    0.0000   -0.0000 C   0  0  0  0  0  0  0  0  0  0  0  0
   -0.0000   -2.2500   -0.0000 C   0  0  0  0  0  0  0  0  0  0  0  0
   -1.2990    1.5000   -0.0000 O   0  0  0  0  0  0  0  0  0  0  0  0
   -2.5981   -0.7500   -0.0000 O   0  0  0  0  0  0  0  0  0  0  0  0
   -1.2990   -3.0000   -0.0000 C   0  0  0  0  0  0  0  0  0  0  0  0
   -2.5981   -2.2500   -0.0000 C   0  0  0  0  0  0  0  0  0  0  0  0
   -1.2990   -4.5000   -0.0000 C   0  0  0  0  0  0  0  0  0  0  0  0
   -3.8971   -3.0000   -0.0000 C   0  0  0  0  0  0  0  0  0  0  0  0
   -2.5981   -5.2500   -0.0000 C   0  0  0  0  0  0  0  0  0  0  0  0
   -3.8971   -4.5000   -0.0000 C   0  0  0  0  0  0  0  0  0  0  0  0
  1  2  1  0  0  0  0
  2  3  2  0  0  0  0
  2  4  1  0  0  0  0
  3  5  1  0  0  0  0
  3  6  1  0  0  0  0
  4  7  2  0  0  0  0
  5  8  2  0  0  0  0
  6  9  2  0  0  0  0
  9 10  1  0  0  0  0
 10 11  1  0  0  0  0
 11 12  2  0  0  0  0
 11 13  1  0  0  0  0
 13 14  1  0  0  0  0
 13 15  2  0  0  0  0
 14 16  2  0  0  0  0
 14 17  1  0  0  0  0
 15 18  1  0  0  0  0
 17 19  1  0  0  0  0
 18 20  2  0  0  0  0
 19 21  2  0  0  0  0
 20 22  1  0  0  0  0
 21 23  1  0  0  0  0
  7  8  1  0  0  0  0
 18 19  1  0  0  0  0
 22 23  2  0  0  0  0
M  END
>  <S/N>
444

>  <Compound ID>
C_461

>  <PubChem CID>
155528293

>  <Isomeric SMILES>
C1=CC=C2C(=C1)C=C(C(=O)O2)C(=O)N/N=C/C3=CC=CC=C3F

>  <IC50 (�M)>
1.1

>  <pIC50>
5.96

$$$$
C_462
Actelion Java MolfileCreator 1.0

 28 31  0  0  0  0  0  0  0  0999 V2000
    5.3077    4.8566   -0.0000 Cl  0  0  0  0  0  0  0  0  0  0  0  0
    4.9010    3.9431   -0.0000 C   0  0  0  0  0  0  0  0  0  0  0  0
    3.9064    3.8385   -0.0000 C   0  0  0  0  0  0  0  0  0  0  0  0
    5.4887    3.1341   -0.0000 C   0  0  0  0  0  0  0  0  0  0  0  0
    3.4997    2.9250   -0.0000 C   0  0  0  0  0  0  0  0  0  0  0  0
    5.0820    2.2205   -0.0000 C   0  0  0  0  0  0  0  0  0  0  0  0
    4.0875    2.1160   -0.0000 C   0  0  0  0  0  0  0  0  0  0  0  0
    3.6808    1.2024   -0.0000 C   0  0  0  0  0  0  0  0  0  0  0  0
    2.7026    0.9945   -0.0000 S   0  0  0  0  0  0  0  0  0  0  0  0
    4.1808    0.3364   -0.0000 N   0  0  0  0  0  0  0  0  0  0  0  0
    2.5981   -0.0000   -0.0000 C   0  0  0  0  0  0  0  0  0  0  0  0
    3.5116   -0.4067   -0.0000 N   0  0  0  0  0  0  0  0  0  0  0  0
    1.7321   -0.5000   -0.0000 N   0  0  0  0  0  0  0  0  0  0  0  0
    0.8660   -0.0000   -0.0000 C   0  0  0  0  0  0  0  0  0  0  0  0
    0.0000   -0.5000   -0.0000 C   0  0  0  0  0  0  0  0  0  0  0  0
   -0.8660    0.0000   -0.0000 C   0  0  0  0  0  0  0  0  0  0  0  0
   -0.0000   -1.5000   -0.0000 C   0  0  0  0  0  0  0  0  0  0  0  0
   -1.7321   -0.5000   -0.0000 C   0  0  0  0  0  0  0  0  0  0  0  0
   -0.8660   -2.0000   -0.0000 C   0  0  0  0  0  0  0  0  0  0  0  0
   -1.7321   -1.5000   -0.0000 C   0  0  0  0  0  0  0  0  0  0  0  0
   -2.5981   -2.0000   -0.0000 O   0  0  0  0  0  0  0  0  0  0  0  0
   -3.4641   -1.5000   -0.0000 C   0  0  0  0  0  0  0  0  0  0  0  0
   -4.3301   -2.0000   -0.0000 C   0  0  0  0  0  0  0  0  0  0  0  0
   -5.1962   -1.5000   -0.0000 C   0  0  0  0  0  0  0  0  0  0  0  0
   -4.3301   -3.0000   -0.0000 C   0  0  0  0  0  0  0  0  0  0  0  0
   -6.0622   -2.0000   -0.0000 C   0  0  0  0  0  0  0  0  0  0  0  0
   -5.1962   -3.5000   -0.0000 C   0  0  0  0  0  0  0  0  0  0  0  0
   -6.0622   -3.0000   -0.0000 C   0  0  0  0  0  0  0  0  0  0  0  0
  1  2  1  0  0  0  0
  2  3  2  0  0  0  0
  2  4  1  0  0  0  0
  3  5  1  0  0  0  0
  4  6  2  0  0  0  0
  5  7  2  0  0  0  0
  7  8  1  0  0  0  0
  8  9  1  0  0  0  0
  8 10  2  0  0  0  0
  9 11  1  0  0  0  0
 10 12  1  0  0  0  0
 11 13  1  0  0  0  0
 13 14  2  0  0  0  0
 14 15  1  0  0  0  0
 15 16  2  0  0  0  0
 15 17  1  0  0  0  0
 16 18  1  0  0  0  0
 17 19  2  0  0  0  0
 18 20  2  0  0  0  0
 20 21  1  0  0  0  0
 21 22  1  0  0  0  0
 22 23  1  0  0  0  0
 23 24  2  0  0  0  0
 23 25  1  0  0  0  0
 24 26  1  0  0  0  0
 25 27  2  0  0  0  0
 26 28  2  0  0  0  0
  6  7  1  0  0  0  0
 11 12  2  0  0  0  0
 19 20  1  0  0  0  0
 27 28  1  0  0  0  0
M  END
>  <S/N>
445

>  <Compound ID>
C_462

>  <PubChem CID>
155528487

>  <Isomeric SMILES>
C1=CC=C(C=C1)COC2=CC=C(C=C2)/C=N/C3=NN=C(S3)C4=CC=C(C=C4)Cl

>  <IC50 (�M)>
2.3

>  <pIC50>
5.64

$$$$
C_463
Actelion Java MolfileCreator 1.0

 44 48  0  0  1  0  0  0  0  0999 V2000
    7.7942    3.0000   -0.0000 O   0  0  0  0  0  0  0  0  0  0  0  0
    6.9282    2.5000   -0.0000 N   0  0  0  0  0  0  0  0  0  0  0  0
    6.0622    3.0000   -0.0000 O   0  0  0  0  0  0  0  0  0  0  0  0
    6.9282    1.5000   -0.0000 C   0  0  0  0  0  0  0  0  0  0  0  0
    6.0622    1.0000   -0.0000 C   0  0  0  0  0  0  0  0  0  0  0  0
    7.7942    1.0000   -0.0000 C   0  0  0  0  0  0  0  0  0  0  0  0
    6.0622   -0.0000   -0.0000 C   0  0  0  0  0  0  0  0  0  0  0  0
    7.7942   -0.0000   -0.0000 C   0  0  0  0  0  0  0  0  0  0  0  0
    5.1962   -0.5000   -0.0000 N   0  0  0  0  0  0  0  0  0  0  0  0
    6.9282   -0.5000   -0.0000 C   0  0  0  0  0  0  0  0  0  0  0  0
    4.3301   -0.0000   -0.0000 C   0  0  0  0  0  0  0  0  0  0  0  0
    5.1962   -1.5000   -0.0000 C   0  0  0  0  0  0  0  0  0  0  0  0
    3.4641   -0.5000   -0.0000 C   0  0  0  0  0  0  0  0  0  0  0  0
    4.3301    1.0000   -0.0000 C   0  0  0  0  0  0  0  0  0  0  0  0
    6.0622   -2.0000   -0.0000 C   0  0  0  0  0  0  0  0  0  0  0  0
    4.3301   -2.0000   -0.0000 C   0  0  0  0  0  0  0  0  0  0  0  0
    3.4641   -1.5000   -0.0000 C   0  0  0  0  0  0  0  0  0  0  0  0
    2.5981   -0.0000   -0.0000 C   0  0  0  0  0  0  0  0  0  0  0  0
    5.1962    1.5000   -0.0000 C   0  0  0  0  0  0  0  0  0  0  0  0
    3.4641    1.5000   -0.0000 C   0  0  0  0  0  0  0  0  0  0  0  0
    6.0622   -3.0000   -0.0000 C   0  0  0  0  0  0  0  0  0  0  0  0
    6.9282   -1.5000   -0.0000 C   0  0  0  0  0  0  0  0  0  0  0  0
    2.5981   -2.0000   -0.0000 N   0  0  0  0  0  0  0  0  0  0  0  0
    2.5981    1.0000   -0.0000 O   0  0  0  0  0  0  0  0  0  0  0  0
    1.7321   -0.5000   -0.0000 O   0  0  0  0  0  0  0  0  0  0  0  0
    5.1962    2.5000   -0.0000 C   0  0  0  0  0  0  0  0  0  0  0  0
    3.4641    2.5000   -0.0000 C   0  0  0  0  0  0  0  0  0  0  0  0
    6.9282   -3.5000   -0.0000 C   0  0  0  0  0  0  0  0  0  0  0  0
    7.7942   -2.0000   -0.0000 C   0  0  0  0  0  0  0  0  0  0  0  0
    2.5981   -3.0000   -0.0000 C   0  0  0  0  0  0  0  0  0  0  0  0
    0.8660   -0.0000   -0.0000 C   0  0  0  0  0  0  0  0  0  0  0  0
    4.3301    3.0000   -0.0000 C   0  0  0  0  0  0  0  0  0  0  0  0
    7.7942   -3.0000   -0.0000 C   0  0  0  0  0  0  0  0  0  0  0  0
    1.7321   -3.5000   -0.0000 C   0  0  0  0  0  0  0  0  0  0  0  0
    3.4641   -3.5000   -0.0000 C   0  0  0  0  0  0  0  0  0  0  0  0
    0.0000   -0.5000   -0.0000 C   0  0  0  0  0  0  0  0  0  0  0  0
    4.3301    4.0000   -0.0000 C   0  0  0  0  0  0  0  0  0  0  0  0
    8.6603   -3.5000   -0.0000 C   0  0  0  0  0  0  0  0  0  0  0  0
    1.7321   -4.5000   -0.0000 C   0  0  0  0  0  0  0  0  0  0  0  0
    3.4641   -4.5000   -0.0000 C   0  0  0  0  0  0  0  0  0  0  0  0
    0.8660   -5.0000   -0.0000 N   0  0  0  0  0  0  0  0  0  0  0  0
    2.5981   -5.0000   -0.0000 C   0  0  0  0  0  0  0  0  0  0  0  0
   -0.0000   -4.5000   -0.0000 O   0  0  0  0  0  0  0  0  0  0  0  0
    0.8660   -6.0000   -0.0000 O   0  0  0  0  0  0  0  0  0  0  0  0
  1  2  2  0  0  0  0
  2  3  1  0  0  0  0
  2  4  1  0  0  0  0
  4  5  2  0  0  0  0
  4  6  1  0  0  0  0
  5  7  1  0  0  0  0
  6  8  2  0  0  0  0
  7  9  1  0  0  0  0
  7 10  2  0  0  0  0
  9 11  1  0  0  0  0
  9 12  1  0  0  0  0
 11 13  1  0  0  0  0
 11 14  1  1  0  0  0
 12 15  1  6  0  0  0
 12 16  1  0  0  0  0
 13 17  2  0  0  0  0
 13 18  1  0  0  0  0
 14 19  2  0  0  0  0
 14 20  1  0  0  0  0
 15 21  2  0  0  0  0
 15 22  1  0  0  0  0
 17 23  1  0  0  0  0
 18 24  2  0  0  0  0
 18 25  1  0  0  0  0
 19 26  1  0  0  0  0
 20 27  2  0  0  0  0
 21 28  1  0  0  0  0
 22 29  2  0  0  0  0
 23 30  1  0  0  0  0
 25 31  1  0  0  0  0
 26 32  2  0  0  0  0
 28 33  2  0  0  0  0
 30 34  2  0  0  0  0
 30 35  1  0  0  0  0
 31 36  1  0  0  0  0
 32 37  1  0  0  0  0
 33 38  1  0  0  0  0
 34 39  1  0  0  0  0
 35 40  2  0  0  0  0
 39 41  1  0  0  0  0
 39 42  2  0  0  0  0
 41 43  2  0  0  0  0
 41 44  1  0  0  0  0
  8 10  1  0  0  0  0
 16 17  1  0  0  0  0
 27 32  1  0  0  0  0
 29 33  1  0  0  0  0
 40 42  1  0  0  0  0
M  CHG  4   2   1   3  -1  41   1  44  -1
M  END
>  <S/N>
446

>  <Compound ID>
C_463

>  <PubChem CID>
155528555

>  <Isomeric SMILES>
CCOC(=O)C1=C(C[C@H](N([C@@H]1C2=CC=C(C=C2)C)C3=CC(=CC=C3)[N+](=O)[O-])C4=CC=C(C=C4)C)NC5=CC(=CC=C5)[N+](=O)[O-]

>  <IC50 (�M)>
2.3

>  <pIC50>
5.64

$$$$
C_464
Actelion Java MolfileCreator 1.0

 64 73  0  0  0  0  0  0  0  0999 V2000
    3.4641    2.5000   -0.0000 Cl  0  0  0  0  0  0  0  0  0  0  0  0
    3.4641    1.5000   -0.0000 C   0  0  0  0  0  0  0  0  0  0  0  0
    2.5981    1.0000   -0.0000 C   0  0  0  0  0  0  0  0  0  0  0  0
    4.3301    1.0000   -0.0000 C   0  0  0  0  0  0  0  0  0  0  0  0
    2.5981   -0.0000   -0.0000 C   0  0  0  0  0  0  0  0  0  0  0  0
    4.3301   -0.0000   -0.0000 C   0  0  0  0  0  0  0  0  0  0  0  0
    3.4641   -0.5000   -0.0000 C   0  0  0  0  0  0  0  0  0  0  0  0
    1.7321   -0.5000   -0.0000 C   0  0  0  0  0  0  0  0  0  0  0  0
    1.7321   -1.5000   -0.0000 N   0  0  0  0  0  0  0  0  0  0  0  0
    0.8660   -0.0000   -0.0000 N   0  0  0  0  0  0  0  0  0  0  0  0
    0.9230   -2.0878   -0.0000 N   0  0  0  0  0  0  0  0  0  0  0  0
    2.5411   -2.0878   -0.0000 C   0  0  0  0  0  0  0  0  0  0  0  0
    0.0000   -0.5000   -0.0000 C   0  0  0  0  0  0  0  0  0  0  0  0
    1.2321   -3.0388   -0.0000 C   0  0  0  0  0  0  0  0  0  0  0  0
    3.4921   -1.7788   -0.0000 S   0  0  0  0  0  0  0  0  0  0  0  0
    2.2321   -3.0388   -0.0000 O   0  0  0  0  0  0  0  0  0  0  0  0
   -0.8660    0.0000   -0.0000 C   0  0  0  0  0  0  0  0  0  0  0  0
   -0.0000   -1.5000   -0.0000 C   0  0  0  0  0  0  0  0  0  0  0  0
    0.6443   -3.8479   -0.0000 C   0  0  0  0  0  0  0  0  0  0  0  0
   -1.7321   -0.5000   -0.0000 C   0  0  0  0  0  0  0  0  0  0  0  0
   -0.8660   -2.0000   -0.0000 C   0  0  0  0  0  0  0  0  0  0  0  0
   -0.3503   -3.7433   -0.0000 C   0  0  0  0  0  0  0  0  0  0  0  0
    1.0510   -4.7614   -0.0000 C   0  0  0  0  0  0  0  0  0  0  0  0
   -1.7321   -1.5000   -0.0000 C   0  0  0  0  0  0  0  0  0  0  0  0
   -0.7570   -2.8298   -0.0000 O   0  0  0  0  0  0  0  0  0  0  0  0
   -0.9380   -4.5523   -0.0000 O   0  0  0  0  0  0  0  0  0  0  0  0
    0.4632   -5.5704   -0.0000 C   0  0  0  0  0  0  0  0  0  0  0  0
   -2.5981   -2.0000   -0.0000 C   0  0  0  0  0  0  0  0  0  0  0  0
   -0.5313   -5.4659   -0.0000 C   0  0  0  0  0  0  0  0  0  0  0  0
    0.8700   -6.4840   -0.0000 C   0  0  0  0  0  0  0  0  0  0  0  0
   -3.4641   -1.5000   -0.0000 C   0  0  0  0  0  0  0  0  0  0  0  0
   -2.5981   -3.0000   -0.0000 C   0  0  0  0  0  0  0  0  0  0  0  0
   -1.1191   -6.2749   -0.0000 C   0  0  0  0  0  0  0  0  0  0  0  0
    0.2822   -7.2930   -0.0000 C   0  0  0  0  0  0  0  0  0  0  0  0
   -4.3301   -2.0000   -0.0000 C   0  0  0  0  0  0  0  0  0  0  0  0
   -3.4641   -3.5000   -0.0000 C   0  0  0  0  0  0  0  0  0  0  0  0
   -0.7124   -7.1885   -0.0000 C   0  0  0  0  0  0  0  0  0  0  0  0
   -4.3301   -3.0000   -0.0000 C   0  0  0  0  0  0  0  0  0  0  0  0
   -5.1962   -3.5000   -0.0000 N   0  0  0  0  0  0  0  0  0  0  0  0
   -6.0622   -3.0000   -0.0000 C   0  0  0  0  0  0  0  0  0  0  0  0
   -6.9282   -3.5000   -0.0000 N   0  0  0  0  0  0  0  0  0  0  0  0
   -6.0622   -2.0000   -0.0000 C   0  0  0  0  0  0  0  0  0  0  0  0
   -7.8417   -3.0933   -0.0000 N   0  0  0  0  0  0  0  0  0  0  0  0
   -7.0327   -4.4945   -0.0000 C   0  0  0  0  0  0  0  0  0  0  0  0
   -6.9282   -1.5000   -0.0000 C   0  0  0  0  0  0  0  0  0  0  0  0
   -5.1962   -1.5000   -0.0000 C   0  0  0  0  0  0  0  0  0  0  0  0
   -8.5109   -3.8364   -0.0000 C   0  0  0  0  0  0  0  0  0  0  0  0
   -6.2896   -5.1637   -0.0000 S   0  0  0  0  0  0  0  0  0  0  0  0
   -8.0109   -4.7024   -0.0000 O   0  0  0  0  0  0  0  0  0  0  0  0
   -6.9282   -0.5000   -0.0000 C   0  0  0  0  0  0  0  0  0  0  0  0
   -5.1962   -0.5000   -0.0000 C   0  0  0  0  0  0  0  0  0  0  0  0
   -9.5054   -3.7319   -0.0000 C   0  0  0  0  0  0  0  0  0  0  0  0
   -7.7942    0.0000   -0.0000 Cl  0  0  0  0  0  0  0  0  0  0  0  0
   -6.0622    0.0000   -0.0000 C   0  0  0  0  0  0  0  0  0  0  0  0
   -9.9121   -2.8183   -0.0000 C   0  0  0  0  0  0  0  0  0  0  0  0
  -10.0932   -4.5409   -0.0000 C   0  0  0  0  0  0  0  0  0  0  0  0
  -10.9067   -2.7138   -0.0000 C   0  0  0  0  0  0  0  0  0  0  0  0
   -9.3244   -2.0093   -0.0000 C   0  0  0  0  0  0  0  0  0  0  0  0
  -11.0877   -4.4364   -0.0000 C   0  0  0  0  0  0  0  0  0  0  0  0
  -11.4944   -3.5228   -0.0000 O   0  0  0  0  0  0  0  0  0  0  0  0
  -11.3134   -1.8003   -0.0000 C   0  0  0  0  0  0  0  0  0  0  0  0
   -9.7311   -1.0958   -0.0000 C   0  0  0  0  0  0  0  0  0  0  0  0
  -11.6755   -5.2454   -0.0000 O   0  0  0  0  0  0  0  0  0  0  0  0
  -10.7256   -0.9912   -0.0000 C   0  0  0  0  0  0  0  0  0  0  0  0
  1  2  1  0  0  0  0
  2  3  2  0  0  0  0
  2  4  1  0  0  0  0
  3  5  1  0  0  0  0
  4  6  2  0  0  0  0
  5  7  2  0  0  0  0
  5  8  1  0  0  0  0
  8  9  1  0  0  0  0
  8 10  1  0  0  0  0
  9 11  1  0  0  0  0
  9 12  1  0  0  0  0
 10 13  1  0  0  0  0
 11 14  2  0  0  0  0
 12 15  2  0  0  0  0
 12 16  1  0  0  0  0
 13 17  2  0  0  0  0
 13 18  1  0  0  0  0
 14 19  1  0  0  0  0
 17 20  1  0  0  0  0
 18 21  2  0  0  0  0
 19 22  1  0  0  0  0
 19 23  2  0  0  0  0
 20 24  2  0  0  0  0
 22 25  2  0  0  0  0
 22 26  1  0  0  0  0
 23 27  1  0  0  0  0
 24 28  1  0  0  0  0
 26 29  1  0  0  0  0
 27 30  2  0  0  0  0
 28 31  2  0  0  0  0
 28 32  1  0  0  0  0
 29 33  2  0  0  0  0
 30 34  1  0  0  0  0
 31 35  1  0  0  0  0
 32 36  2  0  0  0  0
 33 37  1  0  0  0  0
 35 38  2  0  0  0  0
 38 39  1  0  0  0  0
 39 40  1  0  0  0  0
 40 41  1  0  0  0  0
 40 42  1  0  0  0  0
 41 43  1  0  0  0  0
 41 44  1  0  0  0  0
 42 45  2  0  0  0  0
 42 46  1  0  0  0  0
 43 47  2  0  0  0  0
 44 48  2  0  0  0  0
 44 49  1  0  0  0  0
 45 50  1  0  0  0  0
 46 51  2  0  0  0  0
 47 52  1  0  0  0  0
 50 53  1  0  0  0  0
 50 54  2  0  0  0  0
 52 55  1  0  0  0  0
 52 56  2  0  0  0  0
 55 57  2  0  0  0  0
 55 58  1  0  0  0  0
 56 59  1  0  0  0  0
 57 60  1  0  0  0  0
 57 61  1  0  0  0  0
 58 62  2  0  0  0  0
 59 63  2  0  0  0  0
 61 64  2  0  0  0  0
  6  7  1  0  0  0  0
 14 16  1  0  0  0  0
 21 24  1  0  0  0  0
 27 29  1  0  0  0  0
 34 37  2  0  0  0  0
 36 38  1  0  0  0  0
 47 49  1  0  0  0  0
 51 54  1  0  0  0  0
 59 60  1  0  0  0  0
 62 64  1  0  0  0  0
M  END
>  <S/N>
447

>  <Compound ID>
C_464

>  <PubChem CID>
155528794

>  <Isomeric SMILES>
C1=CC=C2C(=C1)C=C(C(=O)O2)C3=NN(C(=S)O3)C(C4=CC(=CC=C4)Cl)NC5=CC=C(C=C5)C6=CC=C(C=C6)NC(C7=CC(=CC=C7)Cl)N8C(=S)OC(=N8)C9=CC(=O)OC1=CC=CC=C19

>  <IC50 (�M)>
0.07

>  <pIC50>
7.15

$$$$
C_465
Actelion Java MolfileCreator 1.0

 66 75  0  0  0  0  0  0  0  0999 V2000
    3.7195   -1.3849   -0.0000 S   0  0  0  0  0  0  0  0  0  0  0  0
    3.5116   -0.4067   -0.0000 C   0  0  0  0  0  0  0  0  0  0  0  0
    4.1808    0.3364   -0.0000 O   0  0  0  0  0  0  0  0  0  0  0  0
    2.5981   -0.0000   -0.0000 N   0  0  0  0  0  0  0  0  0  0  0  0
    3.6808    1.2024   -0.0000 C   0  0  0  0  0  0  0  0  0  0  0  0
    2.7026    0.9945   -0.0000 N   0  0  0  0  0  0  0  0  0  0  0  0
    1.7321   -0.5000   -0.0000 C   0  0  0  0  0  0  0  0  0  0  0  0
    4.0875    2.1160   -0.0000 C   0  0  0  0  0  0  0  0  0  0  0  0
    0.8660   -0.0000   -0.0000 N   0  0  0  0  0  0  0  0  0  0  0  0
    1.7321   -1.5000   -0.0000 C   0  0  0  0  0  0  0  0  0  0  0  0
    5.0820    2.2205   -0.0000 C   0  0  0  0  0  0  0  0  0  0  0  0
    3.4997    2.9250   -0.0000 C   0  0  0  0  0  0  0  0  0  0  0  0
    0.0000   -0.5000   -0.0000 C   0  0  0  0  0  0  0  0  0  0  0  0
    0.8660   -2.0000   -0.0000 C   0  0  0  0  0  0  0  0  0  0  0  0
    2.5981   -2.0000   -0.0000 C   0  0  0  0  0  0  0  0  0  0  0  0
    5.6698    1.4115   -0.0000 O   0  0  0  0  0  0  0  0  0  0  0  0
    5.4887    3.1341   -0.0000 O   0  0  0  0  0  0  0  0  0  0  0  0
    3.9064    3.8385   -0.0000 C   0  0  0  0  0  0  0  0  0  0  0  0
   -0.8660    0.0000   -0.0000 C   0  0  0  0  0  0  0  0  0  0  0  0
   -0.0000   -1.5000   -0.0000 C   0  0  0  0  0  0  0  0  0  0  0  0
    0.8660   -3.0000   -0.0000 C   0  0  0  0  0  0  0  0  0  0  0  0
    2.5981   -3.0000   -0.0000 C   0  0  0  0  0  0  0  0  0  0  0  0
    4.9010    3.9431   -0.0000 C   0  0  0  0  0  0  0  0  0  0  0  0
    3.3187    4.6476   -0.0000 C   0  0  0  0  0  0  0  0  0  0  0  0
   -1.7321   -0.5000   -0.0000 C   0  0  0  0  0  0  0  0  0  0  0  0
   -0.8660   -2.0000   -0.0000 C   0  0  0  0  0  0  0  0  0  0  0  0
    0.0000   -3.5000   -0.0000 O   0  0  0  0  0  0  0  0  0  0  0  0
    1.7321   -3.5000   -0.0000 C   0  0  0  0  0  0  0  0  0  0  0  0
    5.3077    4.8566   -0.0000 C   0  0  0  0  0  0  0  0  0  0  0  0
    3.7254    5.5611   -0.0000 C   0  0  0  0  0  0  0  0  0  0  0  0
   -1.7321   -1.5000   -0.0000 C   0  0  0  0  0  0  0  0  0  0  0  0
    0.0000   -4.5000   -0.0000 C   0  0  0  0  0  0  0  0  0  0  0  0
    4.7199    5.6656   -0.0000 C   0  0  0  0  0  0  0  0  0  0  0  0
   -2.5981   -2.0000   -0.0000 C   0  0  0  0  0  0  0  0  0  0  0  0
   -3.4641   -1.5000   -0.0000 C   0  0  0  0  0  0  0  0  0  0  0  0
   -2.5981   -3.0000   -0.0000 C   0  0  0  0  0  0  0  0  0  0  0  0
   -4.3301   -2.0000   -0.0000 C   0  0  0  0  0  0  0  0  0  0  0  0
   -3.4641   -3.5000   -0.0000 C   0  0  0  0  0  0  0  0  0  0  0  0
   -4.3301   -3.0000   -0.0000 C   0  0  0  0  0  0  0  0  0  0  0  0
   -5.1962   -3.5000   -0.0000 N   0  0  0  0  0  0  0  0  0  0  0  0
   -6.0622   -3.0000   -0.0000 C   0  0  0  0  0  0  0  0  0  0  0  0
   -6.9282   -3.5000   -0.0000 N   0  0  0  0  0  0  0  0  0  0  0  0
   -6.0622   -2.0000   -0.0000 C   0  0  0  0  0  0  0  0  0  0  0  0
   -7.8417   -3.0933   -0.0000 N   0  0  0  0  0  0  0  0  0  0  0  0
   -7.0327   -4.4945   -0.0000 C   0  0  0  0  0  0  0  0  0  0  0  0
   -6.9282   -1.5000   -0.0000 C   0  0  0  0  0  0  0  0  0  0  0  0
   -5.1962   -1.5000   -0.0000 C   0  0  0  0  0  0  0  0  0  0  0  0
   -8.5109   -3.8364   -0.0000 C   0  0  0  0  0  0  0  0  0  0  0  0
   -6.2896   -5.1637   -0.0000 S   0  0  0  0  0  0  0  0  0  0  0  0
   -8.0109   -4.7024   -0.0000 O   0  0  0  0  0  0  0  0  0  0  0  0
   -6.9282   -0.5000   -0.0000 C   0  0  0  0  0  0  0  0  0  0  0  0
   -5.1962   -0.5000   -0.0000 C   0  0  0  0  0  0  0  0  0  0  0  0
   -9.5054   -3.7319   -0.0000 C   0  0  0  0  0  0  0  0  0  0  0  0
   -7.7942    0.0000   -0.0000 O   0  0  0  0  0  0  0  0  0  0  0  0
   -6.0622    0.0000   -0.0000 C   0  0  0  0  0  0  0  0  0  0  0  0
   -9.9121   -2.8183   -0.0000 C   0  0  0  0  0  0  0  0  0  0  0  0
  -10.0932   -4.5409   -0.0000 C   0  0  0  0  0  0  0  0  0  0  0  0
   -7.7942    1.0000   -0.0000 C   0  0  0  0  0  0  0  0  0  0  0  0
  -10.9067   -2.7138   -0.0000 C   0  0  0  0  0  0  0  0  0  0  0  0
   -9.3244   -2.0093   -0.0000 C   0  0  0  0  0  0  0  0  0  0  0  0
  -11.0877   -4.4364   -0.0000 C   0  0  0  0  0  0  0  0  0  0  0  0
  -11.4944   -3.5228   -0.0000 O   0  0  0  0  0  0  0  0  0  0  0  0
  -11.3134   -1.8003   -0.0000 C   0  0  0  0  0  0  0  0  0  0  0  0
   -9.7311   -1.0958   -0.0000 C   0  0  0  0  0  0  0  0  0  0  0  0
  -11.6755   -5.2454   -0.0000 O   0  0  0  0  0  0  0  0  0  0  0  0
  -10.7256   -0.9912   -0.0000 C   0  0  0  0  0  0  0  0  0  0  0  0
  1  2  2  0  0  0  0
  2  3  1  0  0  0  0
  2  4  1  0  0  0  0
  3  5  1  0  0  0  0
  4  6  1  0  0  0  0
  4  7  1  0  0  0  0
  5  8  1  0  0  0  0
  7  9  1  0  0  0  0
  7 10  1  0  0  0  0
  8 11  1  0  0  0  0
  8 12  2  0  0  0  0
  9 13  1  0  0  0  0
 10 14  2  0  0  0  0
 10 15  1  0  0  0  0
 11 16  2  0  0  0  0
 11 17  1  0  0  0  0
 12 18  1  0  0  0  0
 13 19  2  0  0  0  0
 13 20  1  0  0  0  0
 14 21  1  0  0  0  0
 15 22  2  0  0  0  0
 17 23  1  0  0  0  0
 18 24  1  0  0  0  0
 19 25  1  0  0  0  0
 20 26  2  0  0  0  0
 21 27  1  0  0  0  0
 21 28  2  0  0  0  0
 23 29  1  0  0  0  0
 24 30  2  0  0  0  0
 25 31  2  0  0  0  0
 27 32  1  0  0  0  0
 29 33  2  0  0  0  0
 31 34  1  0  0  0  0
 34 35  2  0  0  0  0
 34 36  1  0  0  0  0
 35 37  1  0  0  0  0
 36 38  2  0  0  0  0
 37 39  2  0  0  0  0
 39 40  1  0  0  0  0
 40 41  1  0  0  0  0
 41 42  1  0  0  0  0
 41 43  1  0  0  0  0
 42 44  1  0  0  0  0
 42 45  1  0  0  0  0
 43 46  2  0  0  0  0
 43 47  1  0  0  0  0
 44 48  2  0  0  0  0
 45 49  2  0  0  0  0
 45 50  1  0  0  0  0
 46 51  1  0  0  0  0
 47 52  2  0  0  0  0
 48 53  1  0  0  0  0
 51 54  1  0  0  0  0
 51 55  2  0  0  0  0
 53 56  1  0  0  0  0
 53 57  2  0  0  0  0
 54 58  1  0  0  0  0
 56 59  2  0  0  0  0
 56 60  1  0  0  0  0
 57 61  1  0  0  0  0
 59 62  1  0  0  0  0
 59 63  1  0  0  0  0
 60 64  2  0  0  0  0
 61 65  2  0  0  0  0
 63 66  2  0  0  0  0
  5  6  2  0  0  0  0
 18 23  2  0  0  0  0
 22 28  1  0  0  0  0
 26 31  1  0  0  0  0
 30 33  1  0  0  0  0
 38 39  1  0  0  0  0
 48 50  1  0  0  0  0
 52 55  1  0  0  0  0
 61 62  1  0  0  0  0
 64 66  1  0  0  0  0
M  END
>  <S/N>
448

>  <Compound ID>
C_465

>  <PubChem CID>
155529010

>  <Isomeric SMILES>
COC1=CC=CC(=C1)C(NC2=CC=C(C=C2)C3=CC=C(C=C3)NC(C4=CC(=CC=C4)OC)N5C(=S)OC(=N5)C6=CC(=O)OC7=CC=CC=C76)N8C(=S)OC(=N8)C9=CC1=CC=CC=C1OC9=O

>  <IC50 (�M)>
0.07

>  <pIC50>
7.15

$$$$
C_466
Actelion Java MolfileCreator 1.0

 35 39  0  0  0  0  0  0  0  0999 V2000
    4.3301   -0.0000   -0.0000 Br  0  0  0  0  0  0  0  0  0  0  0  0
    3.4641   -0.5000   -0.0000 C   0  0  0  0  0  0  0  0  0  0  0  0
    2.5981   -0.0000   -0.0000 C   0  0  0  0  0  0  0  0  0  0  0  0
    3.4641   -1.5000   -0.0000 C   0  0  0  0  0  0  0  0  0  0  0  0
    2.5981    1.0000   -0.0000 O   0  0  0  0  0  0  0  0  0  0  0  0
    1.7321   -0.5000   -0.0000 C   0  0  0  0  0  0  0  0  0  0  0  0
    2.5981   -2.0000   -0.0000 C   0  0  0  0  0  0  0  0  0  0  0  0
    0.8660   -0.0000   -0.0000 O   0  0  0  0  0  0  0  0  0  0  0  0
    1.7321   -1.5000   -0.0000 C   0  0  0  0  0  0  0  0  0  0  0  0
    2.5981   -3.0000   -0.0000 C   0  0  0  0  0  0  0  0  0  0  0  0
    0.0000   -0.5000   -0.0000 C   0  0  0  0  0  0  0  0  0  0  0  0
    1.7321   -3.5000   -0.0000 C   0  0  0  0  0  0  0  0  0  0  0  0
    3.4641   -3.5000   -0.0000 C   0  0  0  0  0  0  0  0  0  0  0  0
    1.7321   -4.5000   -0.0000 C   0  0  0  0  0  0  0  0  0  0  0  0
    0.8660   -3.0000   -0.0000 C   0  0  0  0  0  0  0  0  0  0  0  0
    3.4641   -4.5000   -0.0000 C   0  0  0  0  0  0  0  0  0  0  0  0
    4.3301   -3.0000   -0.0000 C   0  0  0  0  0  0  0  0  0  0  0  0
    2.7481   -5.2000   -0.0000 O   0  0  0  0  0  0  0  0  0  0  0  0
    0.8660   -5.0000   -0.0000 O   0  0  0  0  0  0  0  0  0  0  0  0
    0.8660   -2.0000   -0.0000 N   0  0  0  0  0  0  0  0  0  0  0  0
   -0.0000   -3.5000   -0.0000 C   0  0  0  0  0  0  0  0  0  0  0  0
    2.7173   -4.8269   -0.0000 O   0  0  0  0  0  0  0  0  0  0  0  0
    4.3301   -5.0000   -0.0000 O   0  0  0  0  0  0  0  0  0  0  0  0
    4.3301   -2.0000   -0.0000 N   0  0  0  0  0  0  0  0  0  0  0  0
    5.1962   -3.5000   -0.0000 C   0  0  0  0  0  0  0  0  0  0  0  0
   -0.0000   -4.5000   -0.0000 C   0  0  0  0  0  0  0  0  0  0  0  0
   -0.8660   -3.0000   -0.0000 C   0  0  0  0  0  0  0  0  0  0  0  0
    5.1962   -4.5000   -0.0000 C   0  0  0  0  0  0  0  0  0  0  0  0
    6.0622   -3.0000   -0.0000 C   0  0  0  0  0  0  0  0  0  0  0  0
   -0.8660   -5.0000   -0.0000 C   0  0  0  0  0  0  0  0  0  0  0  0
   -1.7321   -3.5000   -0.0000 C   0  0  0  0  0  0  0  0  0  0  0  0
    6.0622   -5.0000   -0.0000 C   0  0  0  0  0  0  0  0  0  0  0  0
    6.9282   -3.5000   -0.0000 C   0  0  0  0  0  0  0  0  0  0  0  0
   -1.7321   -4.5000   -0.0000 C   0  0  0  0  0  0  0  0  0  0  0  0
    6.9282   -4.5000   -0.0000 C   0  0  0  0  0  0  0  0  0  0  0  0
  1  2  1  0  0  0  0
  2  3  2  0  0  0  0
  2  4  1  0  0  0  0
  3  5  1  0  0  0  0
  3  6  1  0  0  0  0
  4  7  2  0  0  0  0
  6  8  1  0  0  0  0
  6  9  2  0  0  0  0
  7 10  1  0  0  0  0
  8 11  1  0  0  0  0
 10 12  1  0  0  0  0
 10 13  1  0  0  0  0
 12 14  1  0  0  0  0
 12 15  2  0  0  0  0
 13 16  1  0  0  0  0
 13 17  2  0  0  0  0
 14 18  2  0  0  0  0
 14 19  1  0  0  0  0
 15 20  1  0  0  0  0
 15 21  1  0  0  0  0
 16 22  2  0  0  0  0
 16 23  1  0  0  0  0
 17 24  1  0  0  0  0
 17 25  1  0  0  0  0
 19 26  1  0  0  0  0
 21 27  2  0  0  0  0
 23 28  1  0  0  0  0
 25 29  2  0  0  0  0
 26 30  2  0  0  0  0
 27 31  1  0  0  0  0
 28 32  2  0  0  0  0
 29 33  1  0  0  0  0
 30 34  1  0  0  0  0
 32 35  1  0  0  0  0
  7  9  1  0  0  0  0
 21 26  1  0  0  0  0
 25 28  1  0  0  0  0
 31 34  2  0  0  0  0
 33 35  2  0  0  0  0
M  END
>  <S/N>
449

>  <Compound ID>
C_466

>  <PubChem CID>
155529019

>  <Isomeric SMILES>
COC1=C(C(=CC(=C1)C(C2=C(C3=CC=CC=C3OC2=O)N)C4=C(C5=CC=CC=C5OC4=O)N)Br)O

>  <IC50 (�M)>
20

>  <pIC50>
4.7

$$$$
C_467
Actelion Java MolfileCreator 1.0

 25 28  0  0  0  0  0  0  0  0999 V2000
    5.6808    2.9345   -0.0000 Cl  0  0  0  0  0  0  0  0  0  0  0  0
    5.1808    2.0685   -0.0000 C   0  0  0  0  0  0  0  0  0  0  0  0
    4.1808    2.0685   -0.0000 C   0  0  0  0  0  0  0  0  0  0  0  0
    5.6808    1.2024   -0.0000 C   0  0  0  0  0  0  0  0  0  0  0  0
    3.6808    1.2024   -0.0000 C   0  0  0  0  0  0  0  0  0  0  0  0
    5.1808    0.3364   -0.0000 C   0  0  0  0  0  0  0  0  0  0  0  0
    2.7026    0.9945   -0.0000 N   0  0  0  0  0  0  0  0  0  0  0  0
    4.1808    0.3364   -0.0000 C   0  0  0  0  0  0  0  0  0  0  0  0
    2.5981   -0.0000   -0.0000 C   0  0  0  0  0  0  0  0  0  0  0  0
    3.5116   -0.4067   -0.0000 S   0  0  0  0  0  0  0  0  0  0  0  0
    1.7321   -0.5000   -0.0000 S   0  0  0  0  0  0  0  0  0  0  0  0
    0.8660   -0.0000   -0.0000 C   0  0  0  0  0  0  0  0  0  0  0  0
    0.0000   -0.5000   -0.0000 C   0  0  0  0  0  0  0  0  0  0  0  0
   -0.9135   -0.0933   -0.0000 N   0  0  0  0  0  0  0  0  0  0  0  0
   -0.1045   -1.4945   -0.0000 C   0  0  0  0  0  0  0  0  0  0  0  0
   -1.5827   -0.8364   -0.0000 N   0  0  0  0  0  0  0  0  0  0  0  0
   -1.0827   -1.7024   -0.0000 N   0  0  0  0  0  0  0  0  0  0  0  0
   -1.4894   -2.6160   -0.0000 C   0  0  0  0  0  0  0  0  0  0  0  0
   -0.9016   -3.4250   -0.0000 C   0  0  0  0  0  0  0  0  0  0  0  0
   -1.3084   -4.3385   -0.0000 C   0  0  0  0  0  0  0  0  0  0  0  0
    0.0929   -3.3205   -0.0000 C   0  0  0  0  0  0  0  0  0  0  0  0
   -2.3029   -4.4431   -0.0000 F   0  0  0  0  0  0  0  0  0  0  0  0
   -0.7206   -5.1476   -0.0000 C   0  0  0  0  0  0  0  0  0  0  0  0
    0.6807   -4.1295   -0.0000 C   0  0  0  0  0  0  0  0  0  0  0  0
    0.2739   -5.0430   -0.0000 C   0  0  0  0  0  0  0  0  0  0  0  0
  1  2  1  0  0  0  0
  2  3  2  0  0  0  0
  2  4  1  0  0  0  0
  3  5  1  0  0  0  0
  4  6  2  0  0  0  0
  5  7  1  0  0  0  0
  5  8  2  0  0  0  0
  7  9  2  0  0  0  0
  8 10  1  0  0  0  0
  9 11  1  0  0  0  0
 11 12  1  0  0  0  0
 12 13  1  0  0  0  0
 13 14  1  0  0  0  0
 13 15  2  0  0  0  0
 14 16  2  0  0  0  0
 15 17  1  0  0  0  0
 17 18  1  0  0  0  0
 18 19  1  0  0  0  0
 19 20  2  0  0  0  0
 19 21  1  0  0  0  0
 20 22  1  0  0  0  0
 20 23  1  0  0  0  0
 21 24  2  0  0  0  0
 23 25  2  0  0  0  0
  6  8  1  0  0  0  0
  9 10  1  0  0  0  0
 16 17  1  0  0  0  0
 24 25  1  0  0  0  0
M  END
>  <S/N>
450

>  <Compound ID>
C_467

>  <PubChem CID>
155529045

>  <Isomeric SMILES>
C1=CC=C(C(=C1)CN2C=C(N=N2)CSC3=NC4=C(S3)C=CC(=C4)Cl)F

>  <IC50 (�M)>
20

>  <pIC50>
4.7

$$$$
C_468
Actelion Java MolfileCreator 1.0

 24 27  0  0  0  0  0  0  0  0999 V2000
    2.7026    0.9945   -0.0000 S   0  0  0  0  0  0  0  0  0  0  0  0
    2.5981   -0.0000   -0.0000 C   0  0  0  0  0  0  0  0  0  0  0  0
    3.6808    1.2024   -0.0000 C   0  0  0  0  0  0  0  0  0  0  0  0
    1.7321   -0.5000   -0.0000 S   0  0  0  0  0  0  0  0  0  0  0  0
    3.5116   -0.4067   -0.0000 N   0  0  0  0  0  0  0  0  0  0  0  0
    4.1808    0.3364   -0.0000 C   0  0  0  0  0  0  0  0  0  0  0  0
    4.1808    2.0685   -0.0000 C   0  0  0  0  0  0  0  0  0  0  0  0
    0.8660   -0.0000   -0.0000 C   0  0  0  0  0  0  0  0  0  0  0  0
    5.1808    0.3364   -0.0000 C   0  0  0  0  0  0  0  0  0  0  0  0
    5.1808    2.0685   -0.0000 C   0  0  0  0  0  0  0  0  0  0  0  0
    0.0000   -0.5000   -0.0000 C   0  0  0  0  0  0  0  0  0  0  0  0
    5.6808    1.2024   -0.0000 C   0  0  0  0  0  0  0  0  0  0  0  0
   -0.9135   -0.0933   -0.0000 N   0  0  0  0  0  0  0  0  0  0  0  0
   -0.1045   -1.4945   -0.0000 C   0  0  0  0  0  0  0  0  0  0  0  0
   -1.5827   -0.8364   -0.0000 N   0  0  0  0  0  0  0  0  0  0  0  0
   -1.0827   -1.7024   -0.0000 N   0  0  0  0  0  0  0  0  0  0  0  0
   -1.4894   -2.6160   -0.0000 C   0  0  0  0  0  0  0  0  0  0  0  0
   -0.9016   -3.4250   -0.0000 C   0  0  0  0  0  0  0  0  0  0  0  0
   -1.3084   -4.3385   -0.0000 C   0  0  0  0  0  0  0  0  0  0  0  0
    0.0929   -3.3205   -0.0000 C   0  0  0  0  0  0  0  0  0  0  0  0
   -0.7206   -5.1476   -0.0000 C   0  0  0  0  0  0  0  0  0  0  0  0
    0.6807   -4.1295   -0.0000 C   0  0  0  0  0  0  0  0  0  0  0  0
   -1.1273   -6.0611   -0.0000 F   0  0  0  0  0  0  0  0  0  0  0  0
    0.2739   -5.0430   -0.0000 C   0  0  0  0  0  0  0  0  0  0  0  0
  1  2  1  0  0  0  0
  1  3  1  0  0  0  0
  2  4  1  0  0  0  0
  2  5  2  0  0  0  0
  3  6  2  0  0  0  0
  3  7  1  0  0  0  0
  4  8  1  0  0  0  0
  6  9  1  0  0  0  0
  7 10  2  0  0  0  0
  8 11  1  0  0  0  0
  9 12  2  0  0  0  0
 11 13  1  0  0  0  0
 11 14  2  0  0  0  0
 13 15  2  0  0  0  0
 14 16  1  0  0  0  0
 16 17  1  0  0  0  0
 17 18  1  0  0  0  0
 18 19  2  0  0  0  0
 18 20  1  0  0  0  0
 19 21  1  0  0  0  0
 20 22  2  0  0  0  0
 21 23  1  0  0  0  0
 21 24  2  0  0  0  0
  5  6  1  0  0  0  0
 10 12  1  0  0  0  0
 15 16  1  0  0  0  0
 22 24  1  0  0  0  0
M  END
>  <S/N>
451

>  <Compound ID>
C_468

>  <PubChem CID>
155529760

>  <Isomeric SMILES>
C1=CC=C2C(=C1)N=C(S2)SCC3=CN(N=N3)CC4=CC(=CC=C4)F

>  <IC50 (�M)>
20

>  <pIC50>
4.7

$$$$
C_469
Actelion Java MolfileCreator 1.0

 32 35  0  0  0  0  0  0  0  0999 V2000
   10.1904   -0.5093   -0.0000 Cl  0  0  0  0  0  0  0  0  0  0  0  0
   10.7782   -1.3183   -0.0000 C   0  0  0  0  0  0  0  0  0  0  0  0
   10.3714   -2.2319   -0.0000 C   0  0  0  0  0  0  0  0  0  0  0  0
   11.7727   -1.2138   -0.0000 C   0  0  0  0  0  0  0  0  0  0  0  0
    9.3769   -2.3364   -0.0000 C   0  0  0  0  0  0  0  0  0  0  0  0
   10.9592   -3.0409   -0.0000 C   0  0  0  0  0  0  0  0  0  0  0  0
   12.3605   -2.0228   -0.0000 C   0  0  0  0  0  0  0  0  0  0  0  0
    8.7078   -1.5933   -0.0000 O   0  0  0  0  0  0  0  0  0  0  0  0
    8.8769   -3.2024   -0.0000 N   0  0  0  0  0  0  0  0  0  0  0  0
   11.9537   -2.9364   -0.0000 C   0  0  0  0  0  0  0  0  0  0  0  0
    7.7942   -2.0000   -0.0000 C   0  0  0  0  0  0  0  0  0  0  0  0
    7.8988   -2.9945   -0.0000 N   0  0  0  0  0  0  0  0  0  0  0  0
    6.9282   -1.5000   -0.0000 C   0  0  0  0  0  0  0  0  0  0  0  0
    6.9282   -0.5000   -0.0000 C   0  0  0  0  0  0  0  0  0  0  0  0
    6.0622   -2.0000   -0.0000 C   0  0  0  0  0  0  0  0  0  0  0  0
    6.0622   -0.0000   -0.0000 C   0  0  0  0  0  0  0  0  0  0  0  0
    5.1962   -1.5000   -0.0000 C   0  0  0  0  0  0  0  0  0  0  0  0
    5.1962   -0.5000   -0.0000 C   0  0  0  0  0  0  0  0  0  0  0  0
    4.3301   -0.0000   -0.0000 C   0  0  0  0  0  0  0  0  0  0  0  0
    4.3301    1.0000   -0.0000 O   0  0  0  0  0  0  0  0  0  0  0  0
    3.4641   -0.5000   -0.0000 N   0  0  0  0  0  0  0  0  0  0  0  0
    2.5981   -0.0000   -0.0000 N   0  0  0  0  0  0  0  0  0  0  0  0
    1.7321   -0.5000   -0.0000 C   0  0  0  0  0  0  0  0  0  0  0  0
    1.7321   -1.5000   -0.0000 S   0  0  0  0  0  0  0  0  0  0  0  0
    0.8660   -0.0000   -0.0000 N   0  0  0  0  0  0  0  0  0  0  0  0
    0.0000   -0.5000   -0.0000 C   0  0  0  0  0  0  0  0  0  0  0  0
   -0.8660    0.0000   -0.0000 C   0  0  0  0  0  0  0  0  0  0  0  0
   -0.0000   -1.5000   -0.0000 C   0  0  0  0  0  0  0  0  0  0  0  0
   -1.7321   -0.5000   -0.0000 C   0  0  0  0  0  0  0  0  0  0  0  0
   -0.8660   -2.0000   -0.0000 C   0  0  0  0  0  0  0  0  0  0  0  0
   -1.7321   -1.5000   -0.0000 C   0  0  0  0  0  0  0  0  0  0  0  0
   -2.5981    0.0000   -0.0000 C   0  0  0  0  0  0  0  0  0  0  0  0
  1  2  1  0  0  0  0
  2  3  2  0  0  0  0
  2  4  1  0  0  0  0
  3  5  1  0  0  0  0
  3  6  1  0  0  0  0
  4  7  2  0  0  0  0
  5  8  1  0  0  0  0
  5  9  2  0  0  0  0
  6 10  2  0  0  0  0
  8 11  1  0  0  0  0
  9 12  1  0  0  0  0
 11 13  1  0  0  0  0
 13 14  2  0  0  0  0
 13 15  1  0  0  0  0
 14 16  1  0  0  0  0
 15 17  2  0  0  0  0
 16 18  2  0  0  0  0
 18 19  1  0  0  0  0
 19 20  2  0  0  0  0
 19 21  1  0  0  0  0
 21 22  1  0  0  0  0
 22 23  1  0  0  0  0
 23 24  2  0  0  0  0
 23 25  1  0  0  0  0
 25 26  1  0  0  0  0
 26 27  2  0  0  0  0
 26 28  1  0  0  0  0
 27 29  1  0  0  0  0
 28 30  2  0  0  0  0
 29 31  2  0  0  0  0
 29 32  1  0  0  0  0
  7 10  1  0  0  0  0
 11 12  2  0  0  0  0
 17 18  1  0  0  0  0
 30 31  1  0  0  0  0
M  END
>  <S/N>
452

>  <Compound ID>
C_469

>  <PubChem CID>
155529801

>  <Isomeric SMILES>
CC1=CC(=CC=C1)NC(=S)NNC(=O)C2=CC=C(C=C2)C3=NN=C(O3)C4=CC=CC=C4Cl

>  <IC50 (�M)>
0.4

>  <pIC50>
6.4

$$$$
C_470
Actelion Java MolfileCreator 1.0

 37 41  0  0  0  0  0  0  0  0999 V2000
    6.5665   -0.1399   -0.0000 S   0  0  0  0  0  0  0  0  0  0  0  0
    5.1962   -0.7500   -0.0000 C   0  0  0  0  0  0  0  0  0  0  0  0
    7.5702   -1.2546   -0.0000 C   0  0  0  0  0  0  0  0  0  0  0  0
    3.8971   -0.0000   -0.0000 N   0  0  0  0  0  0  0  0  0  0  0  0
    5.3529   -2.2418   -0.0000 N   0  0  0  0  0  0  0  0  0  0  0  0
    6.8202   -2.5537   -0.0000 C   0  0  0  0  0  0  0  0  0  0  0  0
    9.0619   -1.0978   -0.0000 C   0  0  0  0  0  0  0  0  0  0  0  0
    3.8971    1.5000   -0.0000 N   0  0  0  0  0  0  0  0  0  0  0  0
    4.2382   -3.2455   -0.0000 C   0  0  0  0  0  0  0  0  0  0  0  0
    7.4303   -3.9240   -0.0000 O   0  0  0  0  0  0  0  0  0  0  0  0
    9.6721    0.2725   -0.0000 C   0  0  0  0  0  0  0  0  0  0  0  0
    2.5981    2.2500   -0.0000 C   0  0  0  0  0  0  0  0  0  0  0  0
    2.8116   -2.7820   -0.0000 C   0  0  0  0  0  0  0  0  0  0  0  0
    4.5501   -4.7127   -0.0000 C   0  0  0  0  0  0  0  0  0  0  0  0
   11.1638    0.4293   -0.0000 C   0  0  0  0  0  0  0  0  0  0  0  0
    8.7904    1.4860   -0.0000 C   0  0  0  0  0  0  0  0  0  0  0  0
    1.2990    1.5000   -0.0000 O   0  0  0  0  0  0  0  0  0  0  0  0
    2.5981    3.7500   -0.0000 C   0  0  0  0  0  0  0  0  0  0  0  0
    2.4998   -1.3147   -0.0000 O   0  0  0  0  0  0  0  0  0  0  0  0
    1.6969   -3.7856   -0.0000 C   0  0  0  0  0  0  0  0  0  0  0  0
    3.4354   -5.7164   -0.0000 C   0  0  0  0  0  0  0  0  0  0  0  0
   11.7739    1.7996   -0.0000 C   0  0  0  0  0  0  0  0  0  0  0  0
    9.4005    2.8563   -0.0000 C   0  0  0  0  0  0  0  0  0  0  0  0
    1.2990    4.5000   -0.0000 C   0  0  0  0  0  0  0  0  0  0  0  0
    3.8971    4.5000   -0.0000 C   0  0  0  0  0  0  0  0  0  0  0  0
    1.0732   -0.8512   -0.0000 C   0  0  0  0  0  0  0  0  0  0  0  0
    2.0088   -5.2529   -0.0000 C   0  0  0  0  0  0  0  0  0  0  0  0
   10.8923    3.0131   -0.0000 C   0  0  0  0  0  0  0  0  0  0  0  0
   -0.0000    3.7500   -0.0000 O   0  0  0  0  0  0  0  0  0  0  0  0
    1.2990    6.0000   -0.0000 O   0  0  0  0  0  0  0  0  0  0  0  0
    3.8971    6.0000   -0.0000 C   0  0  0  0  0  0  0  0  0  0  0  0
   11.5024    4.3835   -0.0000 F   0  0  0  0  0  0  0  0  0  0  0  0
    2.5981    6.7500   -0.0000 C   0  0  0  0  0  0  0  0  0  0  0  0
    5.1962    6.7500   -0.0000 C   0  0  0  0  0  0  0  0  0  0  0  0
    2.5981    8.2500   -0.0000 C   0  0  0  0  0  0  0  0  0  0  0  0
    5.1962    8.2500   -0.0000 C   0  0  0  0  0  0  0  0  0  0  0  0
    3.8971    9.0000   -0.0000 C   0  0  0  0  0  0  0  0  0  0  0  0
  1  2  1  0  0  0  0
  1  3  1  0  0  0  0
  2  4  2  0  0  0  0
  2  5  1  0  0  0  0
  3  6  1  0  0  0  0
  3  7  2  0  0  0  0
  4  8  1  0  0  0  0
  5  9  1  0  0  0  0
  6 10  2  0  0  0  0
  7 11  1  0  0  0  0
  8 12  1  0  0  0  0
  9 13  2  0  0  0  0
  9 14  1  0  0  0  0
 11 15  2  0  0  0  0
 11 16  1  0  0  0  0
 12 17  2  0  0  0  0
 12 18  1  0  0  0  0
 13 19  1  0  0  0  0
 13 20  1  0  0  0  0
 14 21  2  0  0  0  0
 15 22  1  0  0  0  0
 16 23  2  0  0  0  0
 18 24  1  0  0  0  0
 18 25  2  0  0  0  0
 19 26  1  0  0  0  0
 20 27  2  0  0  0  0
 22 28  2  0  0  0  0
 24 29  2  0  0  0  0
 24 30  1  0  0  0  0
 25 31  1  0  0  0  0
 28 32  1  0  0  0  0
 30 33  1  0  0  0  0
 31 34  2  0  0  0  0
 33 35  2  0  0  0  0
 34 36  1  0  0  0  0
 35 37  1  0  0  0  0
  5  6  1  0  0  0  0
 21 27  1  0  0  0  0
 23 28  1  0  0  0  0
 31 33  1  0  0  0  0
 36 37  2  0  0  0  0
M  END
>  <S/N>
453

>  <Compound ID>
C_470

>  <PubChem CID>
155530029

>  <Isomeric SMILES>
COC1=CC=CC=C1N\2C(=O)/C(=C/C3=CC=C(C=C3)F)/S/C2=N\NC(=O)C4=CC5=CC=CC=C5OC4=O

>  <IC50 (�M)>
0.09

>  <pIC50>
7.05

$$$$
C_471
Actelion Java MolfileCreator 1.0

 65 74  0  0  0  0  0  0  0  0999 V2000
    1.7321   -4.5000   -0.0000 Cl  0  0  0  0  0  0  0  0  0  0  0  0
    1.7321   -3.5000   -0.0000 C   0  0  0  0  0  0  0  0  0  0  0  0
    0.8660   -3.0000   -0.0000 C   0  0  0  0  0  0  0  0  0  0  0  0
    2.5981   -3.0000   -0.0000 C   0  0  0  0  0  0  0  0  0  0  0  0
    0.8660   -2.0000   -0.0000 C   0  0  0  0  0  0  0  0  0  0  0  0
    2.5981   -2.0000   -0.0000 C   0  0  0  0  0  0  0  0  0  0  0  0
    1.7321   -1.5000   -0.0000 C   0  0  0  0  0  0  0  0  0  0  0  0
    1.7321   -0.5000   -0.0000 C   0  0  0  0  0  0  0  0  0  0  0  0
    2.5981   -0.0000   -0.0000 N   0  0  0  0  0  0  0  0  0  0  0  0
    0.8660   -0.0000   -0.0000 N   0  0  0  0  0  0  0  0  0  0  0  0
    3.5116   -0.4067   -0.0000 N   0  0  0  0  0  0  0  0  0  0  0  0
    2.7026    0.9945   -0.0000 C   0  0  0  0  0  0  0  0  0  0  0  0
    0.0000   -0.5000   -0.0000 C   0  0  0  0  0  0  0  0  0  0  0  0
    4.1808    0.3364   -0.0000 C   0  0  0  0  0  0  0  0  0  0  0  0
    1.9595    1.6637   -0.0000 S   0  0  0  0  0  0  0  0  0  0  0  0
    3.6808    1.2024   -0.0000 O   0  0  0  0  0  0  0  0  0  0  0  0
   -0.8660    0.0000   -0.0000 C   0  0  0  0  0  0  0  0  0  0  0  0
   -0.0000   -1.5000   -0.0000 C   0  0  0  0  0  0  0  0  0  0  0  0
    5.1753    0.2319   -0.0000 C   0  0  0  0  0  0  0  0  0  0  0  0
   -1.7321   -0.5000   -0.0000 C   0  0  0  0  0  0  0  0  0  0  0  0
   -0.8660   -2.0000   -0.0000 C   0  0  0  0  0  0  0  0  0  0  0  0
    5.5820   -0.6817   -0.0000 C   0  0  0  0  0  0  0  0  0  0  0  0
    5.7631    1.0409   -0.0000 C   0  0  0  0  0  0  0  0  0  0  0  0
   -1.7321   -1.5000   -0.0000 C   0  0  0  0  0  0  0  0  0  0  0  0
    4.9942   -1.4907   -0.0000 O   0  0  0  0  0  0  0  0  0  0  0  0
    6.5765   -0.7862   -0.0000 O   0  0  0  0  0  0  0  0  0  0  0  0
    6.7576    0.9364   -0.0000 C   0  0  0  0  0  0  0  0  0  0  0  0
   -2.5981   -2.0000   -0.0000 O   0  0  0  0  0  0  0  0  0  0  0  0
    7.1643    0.0228   -0.0000 C   0  0  0  0  0  0  0  0  0  0  0  0
    7.3454    1.7454   -0.0000 C   0  0  0  0  0  0  0  0  0  0  0  0
   -2.5981   -3.0000   -0.0000 C   0  0  0  0  0  0  0  0  0  0  0  0
    8.1588   -0.0817   -0.0000 C   0  0  0  0  0  0  0  0  0  0  0  0
    8.3399    1.6409   -0.0000 C   0  0  0  0  0  0  0  0  0  0  0  0
   -3.4641   -3.5000   -0.0000 C   0  0  0  0  0  0  0  0  0  0  0  0
   -1.7321   -3.5000   -0.0000 C   0  0  0  0  0  0  0  0  0  0  0  0
    8.7466    0.7273   -0.0000 C   0  0  0  0  0  0  0  0  0  0  0  0
   -3.4641   -4.5000   -0.0000 C   0  0  0  0  0  0  0  0  0  0  0  0
   -1.7321   -4.5000   -0.0000 C   0  0  0  0  0  0  0  0  0  0  0  0
   -2.5981   -5.0000   -0.0000 C   0  0  0  0  0  0  0  0  0  0  0  0
   -2.5981   -6.0000   -0.0000 N   0  0  0  0  0  0  0  0  0  0  0  0
   -3.4641   -6.5000   -0.0000 C   0  0  0  0  0  0  0  0  0  0  0  0
   -4.3301   -6.0000   -0.0000 N   0  0  0  0  0  0  0  0  0  0  0  0
   -3.4641   -7.5000   -0.0000 C   0  0  0  0  0  0  0  0  0  0  0  0
   -4.4347   -5.0055   -0.0000 N   0  0  0  0  0  0  0  0  0  0  0  0
   -5.2437   -6.4067   -0.0000 C   0  0  0  0  0  0  0  0  0  0  0  0
   -4.3301   -8.0000   -0.0000 C   0  0  0  0  0  0  0  0  0  0  0  0
   -2.5981   -8.0000   -0.0000 C   0  0  0  0  0  0  0  0  0  0  0  0
   -5.4128   -4.7976   -0.0000 C   0  0  0  0  0  0  0  0  0  0  0  0
   -5.4516   -7.3849   -0.0000 S   0  0  0  0  0  0  0  0  0  0  0  0
   -5.9128   -5.6636   -0.0000 O   0  0  0  0  0  0  0  0  0  0  0  0
   -4.3301   -9.0000   -0.0000 C   0  0  0  0  0  0  0  0  0  0  0  0
   -2.5981   -9.0000   -0.0000 C   0  0  0  0  0  0  0  0  0  0  0  0
   -5.8195   -3.8840   -0.0000 C   0  0  0  0  0  0  0  0  0  0  0  0
   -3.4641   -9.5000   -0.0000 C   0  0  0  0  0  0  0  0  0  0  0  0
   -5.2318   -3.0750   -0.0000 C   0  0  0  0  0  0  0  0  0  0  0  0
   -6.8141   -3.7795   -0.0000 C   0  0  0  0  0  0  0  0  0  0  0  0
   -3.4641  -10.5000   -0.0000 Cl  0  0  0  0  0  0  0  0  0  0  0  0
   -4.2372   -3.1795   -0.0000 O   0  0  0  0  0  0  0  0  0  0  0  0
   -5.6385   -2.1615   -0.0000 O   0  0  0  0  0  0  0  0  0  0  0  0
   -7.2208   -2.8659   -0.0000 C   0  0  0  0  0  0  0  0  0  0  0  0
   -6.6330   -2.0569   -0.0000 C   0  0  0  0  0  0  0  0  0  0  0  0
   -8.2153   -2.7614   -0.0000 C   0  0  0  0  0  0  0  0  0  0  0  0
   -7.0397   -1.1434   -0.0000 C   0  0  0  0  0  0  0  0  0  0  0  0
   -8.6221   -1.8479   -0.0000 C   0  0  0  0  0  0  0  0  0  0  0  0
   -8.0343   -1.0389   -0.0000 C   0  0  0  0  0  0  0  0  0  0  0  0
  1  2  1  0  0  0  0
  2  3  2  0  0  0  0
  2  4  1  0  0  0  0
  3  5  1  0  0  0  0
  4  6  2  0  0  0  0
  5  7  2  0  0  0  0
  7  8  1  0  0  0  0
  8  9  1  0  0  0  0
  8 10  1  0  0  0  0
  9 11  1  0  0  0  0
  9 12  1  0  0  0  0
 10 13  1  0  0  0  0
 11 14  2  0  0  0  0
 12 15  2  0  0  0  0
 12 16  1  0  0  0  0
 13 17  2  0  0  0  0
 13 18  1  0  0  0  0
 14 19  1  0  0  0  0
 17 20  1  0  0  0  0
 18 21  2  0  0  0  0
 19 22  1  0  0  0  0
 19 23  2  0  0  0  0
 20 24  2  0  0  0  0
 22 25  2  0  0  0  0
 22 26  1  0  0  0  0
 23 27  1  0  0  0  0
 24 28  1  0  0  0  0
 26 29  1  0  0  0  0
 27 30  2  0  0  0  0
 28 31  1  0  0  0  0
 29 32  2  0  0  0  0
 30 33  1  0  0  0  0
 31 34  2  0  0  0  0
 31 35  1  0  0  0  0
 32 36  1  0  0  0  0
 34 37  1  0  0  0  0
 35 38  2  0  0  0  0
 37 39  2  0  0  0  0
 39 40  1  0  0  0  0
 40 41  1  0  0  0  0
 41 42  1  0  0  0  0
 41 43  1  0  0  0  0
 42 44  1  0  0  0  0
 42 45  1  0  0  0  0
 43 46  2  0  0  0  0
 43 47  1  0  0  0  0
 44 48  2  0  0  0  0
 45 49  2  0  0  0  0
 45 50  1  0  0  0  0
 46 51  1  0  0  0  0
 47 52  2  0  0  0  0
 48 53  1  0  0  0  0
 51 54  2  0  0  0  0
 53 55  1  0  0  0  0
 53 56  2  0  0  0  0
 54 57  1  0  0  0  0
 55 58  2  0  0  0  0
 55 59  1  0  0  0  0
 56 60  1  0  0  0  0
 59 61  1  0  0  0  0
 60 62  2  0  0  0  0
 61 63  2  0  0  0  0
 62 64  1  0  0  0  0
 63 65  1  0  0  0  0
  6  7  1  0  0  0  0
 14 16  1  0  0  0  0
 21 24  1  0  0  0  0
 27 29  1  0  0  0  0
 33 36  2  0  0  0  0
 38 39  1  0  0  0  0
 48 50  1  0  0  0  0
 52 54  1  0  0  0  0
 60 61  1  0  0  0  0
 64 65  2  0  0  0  0
M  END
>  <S/N>
454

>  <Compound ID>
C_471

>  <PubChem CID>
155530094

>  <Isomeric SMILES>
C1=CC=C2C(=C1)C=C(C(=O)O2)C3=NN(C(=S)O3)C(C4=CC=C(C=C4)Cl)NC5=CC=C(C=C5)OC6=CC=C(C=C6)NC(C7=CC=C(C=C7)Cl)N8C(=S)OC(=N8)C9=CC1=CC=CC=C1OC9=O

>  <IC50 (�M)>
0.07

>  <pIC50>
7.15

$$$$
C_472
Actelion Java MolfileCreator 1.0

 34 37  0  0  0  0  0  0  0  0999 V2000
   10.1904   -0.5093   -0.0000 Cl  0  0  0  0  0  0  0  0  0  0  0  0
   10.7782   -1.3183   -0.0000 C   0  0  0  0  0  0  0  0  0  0  0  0
   10.3714   -2.2319   -0.0000 C   0  0  0  0  0  0  0  0  0  0  0  0
   11.7727   -1.2138   -0.0000 C   0  0  0  0  0  0  0  0  0  0  0  0
    9.3769   -2.3364   -0.0000 C   0  0  0  0  0  0  0  0  0  0  0  0
   10.9592   -3.0409   -0.0000 C   0  0  0  0  0  0  0  0  0  0  0  0
   12.3605   -2.0228   -0.0000 C   0  0  0  0  0  0  0  0  0  0  0  0
    8.7078   -1.5933   -0.0000 O   0  0  0  0  0  0  0  0  0  0  0  0
    8.8769   -3.2024   -0.0000 N   0  0  0  0  0  0  0  0  0  0  0  0
   11.9537   -2.9364   -0.0000 C   0  0  0  0  0  0  0  0  0  0  0  0
    7.7942   -2.0000   -0.0000 C   0  0  0  0  0  0  0  0  0  0  0  0
    7.8988   -2.9945   -0.0000 N   0  0  0  0  0  0  0  0  0  0  0  0
    6.9282   -1.5000   -0.0000 C   0  0  0  0  0  0  0  0  0  0  0  0
    6.9282   -0.5000   -0.0000 C   0  0  0  0  0  0  0  0  0  0  0  0
    6.0622   -2.0000   -0.0000 C   0  0  0  0  0  0  0  0  0  0  0  0
    6.0622   -0.0000   -0.0000 C   0  0  0  0  0  0  0  0  0  0  0  0
    5.1962   -1.5000   -0.0000 C   0  0  0  0  0  0  0  0  0  0  0  0
    5.1962   -0.5000   -0.0000 C   0  0  0  0  0  0  0  0  0  0  0  0
    4.3301   -0.0000   -0.0000 C   0  0  0  0  0  0  0  0  0  0  0  0
    4.3301    1.0000   -0.0000 O   0  0  0  0  0  0  0  0  0  0  0  0
    3.4641   -0.5000   -0.0000 N   0  0  0  0  0  0  0  0  0  0  0  0
    2.5981   -0.0000   -0.0000 N   0  0  0  0  0  0  0  0  0  0  0  0
    1.7321   -0.5000   -0.0000 C   0  0  0  0  0  0  0  0  0  0  0  0
    1.7321   -1.5000   -0.0000 S   0  0  0  0  0  0  0  0  0  0  0  0
    0.8660   -0.0000   -0.0000 N   0  0  0  0  0  0  0  0  0  0  0  0
    0.0000   -0.5000   -0.0000 C   0  0  0  0  0  0  0  0  0  0  0  0
   -0.8660    0.0000   -0.0000 C   0  0  0  0  0  0  0  0  0  0  0  0
   -0.0000   -1.5000   -0.0000 C   0  0  0  0  0  0  0  0  0  0  0  0
   -1.7321   -0.5000   -0.0000 C   0  0  0  0  0  0  0  0  0  0  0  0
   -0.8660   -2.0000   -0.0000 C   0  0  0  0  0  0  0  0  0  0  0  0
   -1.7321   -1.5000   -0.0000 C   0  0  0  0  0  0  0  0  0  0  0  0
   -2.5981   -2.0000   -0.0000 N   0  0  0  0  0  0  0  0  0  0  0  0
   -3.4641   -1.5000   -0.0000 O   0  0  0  0  0  0  0  0  0  0  0  0
   -2.5981   -3.0000   -0.0000 O   0  0  0  0  0  0  0  0  0  0  0  0
  1  2  1  0  0  0  0
  2  3  2  0  0  0  0
  2  4  1  0  0  0  0
  3  5  1  0  0  0  0
  3  6  1  0  0  0  0
  4  7  2  0  0  0  0
  5  8  1  0  0  0  0
  5  9  2  0  0  0  0
  6 10  2  0  0  0  0
  8 11  1  0  0  0  0
  9 12  1  0  0  0  0
 11 13  1  0  0  0  0
 13 14  2  0  0  0  0
 13 15  1  0  0  0  0
 14 16  1  0  0  0  0
 15 17  2  0  0  0  0
 16 18  2  0  0  0  0
 18 19  1  0  0  0  0
 19 20  2  0  0  0  0
 19 21  1  0  0  0  0
 21 22  1  0  0  0  0
 22 23  1  0  0  0  0
 23 24  2  0  0  0  0
 23 25  1  0  0  0  0
 25 26  1  0  0  0  0
 26 27  2  0  0  0  0
 26 28  1  0  0  0  0
 27 29  1  0  0  0  0
 28 30  2  0  0  0  0
 29 31  2  0  0  0  0
 31 32  1  0  0  0  0
 32 33  2  0  0  0  0
 32 34  1  0  0  0  0
  7 10  1  0  0  0  0
 11 12  2  0  0  0  0
 17 18  1  0  0  0  0
 30 31  1  0  0  0  0
M  CHG  2  32   1  34  -1
M  END
>  <S/N>
455

>  <Compound ID>
C_472

>  <PubChem CID>
155530344

>  <Isomeric SMILES>
C1=CC=C(C(=C1)C2=NN=C(O2)C3=CC=C(C=C3)C(=O)NNC(=S)NC4=CC=C(C=C4)[N+](=O)[O-])Cl

>  <IC50 (�M)>
0.4

>  <pIC50>
6.4

$$$$
C_473
Actelion Java MolfileCreator 1.0

 42 47  0  0  1  0  0  0  0  0999 V2000
    3.8971   -4.5000   -0.0000 O   0  0  0  0  0  0  0  0  0  0  0  0
    5.1962   -5.2500   -0.0000 C   0  0  0  0  0  0  0  0  0  0  0  0
    6.4952   -4.5000   -0.0000 O   0  0  0  0  0  0  0  0  0  0  0  0
    5.1962   -6.7500   -0.0000 C   0  0  0  0  0  0  0  0  0  0  0  0
    7.7942   -5.2500   -0.0000 C   0  0  0  0  0  0  0  0  0  0  0  0
    6.4952   -7.5000   -0.0000 C   0  0  0  0  0  0  0  0  0  0  0  0
    9.0933   -4.5000   -0.0000 C   0  0  0  0  0  0  0  0  0  0  0  0
    7.7942   -6.7500   -0.0000 C   0  0  0  0  0  0  0  0  0  0  0  0
    9.0933   -3.0000   -0.0000 O   0  0  0  0  0  0  0  0  0  0  0  0
   10.3923   -5.2500   -0.0000 C   0  0  0  0  0  0  0  0  0  0  0  0
    9.0933   -7.5000   -0.0000 C   0  0  0  0  0  0  0  0  0  0  0  0
    7.7942   -2.2500   -0.0000 C   0  0  0  0  0  0  0  0  0  0  0  0
   11.8189   -4.7865   -0.0000 O   0  0  0  0  0  0  0  0  0  0  0  0
   10.3923   -6.7500   -0.0000 C   0  0  0  0  0  0  0  0  0  0  0  0
    7.7942   -0.7500   -0.0000 C   0  0  0  0  0  0  0  0  0  0  0  0
   12.7006   -6.0000   -0.0000 C   0  0  0  0  0  0  0  0  0  0  0  0
   11.8189   -7.2135   -0.0000 C   0  0  0  0  0  0  0  0  0  0  0  0
    6.4952   -0.0000   -0.0000 O   0  0  0  0  0  0  0  0  0  0  0  0
    9.0933   -0.0000   -0.0000 C   0  0  0  0  0  0  0  0  0  0  0  0
    5.1962   -0.7500   -0.0000 C   0  0  0  0  0  0  0  0  0  0  0  0
    9.0933    1.5000   -0.0000 C   0  0  0  0  0  0  0  0  0  0  0  0
   10.3923   -0.7500   -0.0000 C   0  0  0  0  0  0  0  0  0  0  0  0
    3.8971   -0.0000   -0.0000 C   0  0  0  0  0  0  0  0  0  0  0  0
    4.4462   -2.0490   -0.0000 C   0  0  0  0  0  0  0  0  0  0  0  0
    5.9462   -2.0490   -0.0000 C   0  0  0  0  0  0  0  0  0  0  0  0
    2.5981   -0.7500   -0.0000 O   0  0  0  0  0  0  0  0  0  0  0  0
    3.8971    1.5000   -0.0000 C   0  0  0  0  0  0  0  0  0  0  0  0
    2.5981    2.2500   -0.0000 O   0  0  0  0  0  0  0  0  0  0  0  0
    2.5981    3.7500   -0.0000 C   0  0  0  0  0  0  0  0  0  0  0  0
    1.2990    4.5000   -0.0000 C   0  0  0  0  0  0  0  0  0  0  0  0
    3.8971    4.5000   -0.0000 C   0  0  0  0  0  0  0  0  0  0  0  0
    1.2990    6.0000   -0.0000 C   0  0  0  0  0  0  0  0  0  0  0  0
    0.0000    3.7500   -0.0000 C   0  0  0  0  0  0  0  0  0  0  0  0
    3.8971    6.0000   -0.0000 C   0  0  0  0  0  0  0  0  0  0  0  0
    5.3237    4.0365   -0.0000 C   0  0  0  0  0  0  0  0  0  0  0  0
    0.0000    6.7500   -0.0000 O   0  0  0  0  0  0  0  0  0  0  0  0
    2.5981    6.7500   -0.0000 C   0  0  0  0  0  0  0  0  0  0  0  0
   -1.2990    4.5000   -0.0000 C   0  0  0  0  0  0  0  0  0  0  0  0
    5.3237    6.4635   -0.0000 O   0  0  0  0  0  0  0  0  0  0  0  0
    6.2054    5.2500   -0.0000 C   0  0  0  0  0  0  0  0  0  0  0  0
   -1.2990    6.0000   -0.0000 C   0  0  0  0  0  0  0  0  0  0  0  0
   -2.5981    6.7500   -0.0000 O   0  0  0  0  0  0  0  0  0  0  0  0
  1  2  2  0  0  0  0
  2  3  1  0  0  0  0
  2  4  1  0  0  0  0
  3  5  1  0  0  0  0
  4  6  2  0  0  0  0
  5  7  2  0  0  0  0
  5  8  1  0  0  0  0
  7  9  1  0  0  0  0
  7 10  1  0  0  0  0
  8 11  2  0  0  0  0
  9 12  1  0  0  0  0
 10 13  1  0  0  0  0
 10 14  2  0  0  0  0
 12 15  1  0  0  0  0
 13 16  1  0  0  0  0
 14 17  1  0  0  0  0
 15 18  1  0  0  0  0
 15 19  1  0  0  0  0
 18 20  1  0  0  0  0
 19 21  2  0  0  0  0
 19 22  1  0  0  0  0
 20 23  1  0  0  0  0
 20 24  1  0  0  0  0
 20 25  1  0  0  0  0
 23 26  1  6  0  0  0
 23 27  1  0  0  0  0
 27 28  1  0  0  0  0
 28 29  1  0  0  0  0
 29 30  2  0  0  0  0
 29 31  1  0  0  0  0
 30 32  1  0  0  0  0
 30 33  1  0  0  0  0
 31 34  2  0  0  0  0
 31 35  1  0  0  0  0
 32 36  1  0  0  0  0
 32 37  2  0  0  0  0
 33 38  2  0  0  0  0
 34 39  1  0  0  0  0
 35 40  2  0  0  0  0
 36 41  1  0  0  0  0
 41 42  2  0  0  0  0
  6  8  1  0  0  0  0
 11 14  1  0  0  0  0
 16 17  2  0  0  0  0
 34 37  1  0  0  0  0
 38 41  1  0  0  0  0
 39 40  1  0  0  0  0
M  END
>  <S/N>
456

>  <Compound ID>
C_473

>  <PubChem CID>
155530455

>  <Isomeric SMILES>
CC(=C)C(COC1=C2C(=CC3=C1OC=C3)C=CC(=O)O2)OC(C)(C)[C@@H](COC4=C5C=CC(=O)OC5=CC6=C4C=CO6)O

>  <IC50 (�M)>
8.8

>  <pIC50>
5.06

$$$$
C_474
Actelion Java MolfileCreator 1.0

 56 62  0  0  0  0  0  0  0  0999 V2000
   10.3923   -0.7500   -0.0000 Cl  0  0  0  0  0  0  0  0  0  0  0  0
    9.0933   -0.0000   -0.0000 C   0  0  0  0  0  0  0  0  0  0  0  0
    9.0933    1.5000   -0.0000 C   0  0  0  0  0  0  0  0  0  0  0  0
    7.7942   -0.7500   -0.0000 C   0  0  0  0  0  0  0  0  0  0  0  0
   10.3923    2.2500   -0.0000 Cl  0  0  0  0  0  0  0  0  0  0  0  0
    7.7942    2.2500   -0.0000 C   0  0  0  0  0  0  0  0  0  0  0  0
    6.4952   -0.0000   -0.0000 C   0  0  0  0  0  0  0  0  0  0  0  0
    6.4952    1.5000   -0.0000 C   0  0  0  0  0  0  0  0  0  0  0  0
    5.1962   -0.7500   -0.0000 S   0  0  0  0  0  0  0  0  0  0  0  0
    4.4462   -2.0490   -0.0000 O   0  0  0  0  0  0  0  0  0  0  0  0
    5.9462   -2.0490   -0.0000 O   0  0  0  0  0  0  0  0  0  0  0  0
    3.8971   -0.0000   -0.0000 N   0  0  0  0  0  0  0  0  0  0  0  0
    2.5981   -0.7500   -0.0000 N   0  0  0  0  0  0  0  0  0  0  0  0
    1.2990   -0.0000   -0.0000 C   0  0  0  0  0  0  0  0  0  0  0  0
    1.2990    1.5000   -0.0000 O   0  0  0  0  0  0  0  0  0  0  0  0
    0.0000   -0.7500   -0.0000 C   0  0  0  0  0  0  0  0  0  0  0  0
   -0.0000   -2.2500   -0.0000 C   0  0  0  0  0  0  0  0  0  0  0  0
   -1.2990    0.0000   -0.0000 C   0  0  0  0  0  0  0  0  0  0  0  0
   -1.2990   -3.0000   -0.0000 C   0  0  0  0  0  0  0  0  0  0  0  0
   -2.5981   -0.7500   -0.0000 C   0  0  0  0  0  0  0  0  0  0  0  0
   -2.5981   -2.2500   -0.0000 C   0  0  0  0  0  0  0  0  0  0  0  0
   -1.6109   -4.4672   -0.0000 C   0  0  0  0  0  0  0  0  0  0  0  0
   -3.7128   -3.2537   -0.0000 N   0  0  0  0  0  0  0  0  0  0  0  0
   -3.1027   -4.6240   -0.0000 C   0  0  0  0  0  0  0  0  0  0  0  0
   -0.6072   -5.5819   -0.0000 C   0  0  0  0  0  0  0  0  0  0  0  0
   -1.0707   -7.0085   -0.0000 C   0  0  0  0  0  0  0  0  0  0  0  0
    0.8600   -5.2701   -0.0000 C   0  0  0  0  0  0  0  0  0  0  0  0
   -2.5380   -7.3204   -0.0000 C   0  0  0  0  0  0  0  0  0  0  0  0
   -0.0670   -8.1233   -0.0000 C   0  0  0  0  0  0  0  0  0  0  0  0
    1.9747   -6.2738   -0.0000 C   0  0  0  0  0  0  0  0  0  0  0  0
    1.4701   -3.8998   -0.0000 C   0  0  0  0  0  0  0  0  0  0  0  0
   -3.0015   -8.7470   -0.0000 C   0  0  0  0  0  0  0  0  0  0  0  0
   -0.5306   -9.5498   -0.0000 C   0  0  0  0  0  0  0  0  0  0  0  0
    3.2738   -5.5238   -0.0000 C   0  0  0  0  0  0  0  0  0  0  0  0
    1.9747   -7.7738   -0.0000 C   0  0  0  0  0  0  0  0  0  0  0  0
    2.9619   -4.0566   -0.0000 N   0  0  0  0  0  0  0  0  0  0  0  0
   -1.9978   -9.8617   -0.0000 C   0  0  0  0  0  0  0  0  0  0  0  0
    4.5728   -6.2738   -0.0000 C   0  0  0  0  0  0  0  0  0  0  0  0
    3.2738   -8.5238   -0.0000 C   0  0  0  0  0  0  0  0  0  0  0  0
   -2.4613  -11.2883   -0.0000 C   0  0  0  0  0  0  0  0  0  0  0  0
    4.5728   -7.7738   -0.0000 C   0  0  0  0  0  0  0  0  0  0  0  0
    3.2738  -10.0238   -0.0000 C   0  0  0  0  0  0  0  0  0  0  0  0
    4.5728  -10.7738   -0.0000 O   0  0  0  0  0  0  0  0  0  0  0  0
    1.9747  -10.7738   -0.0000 N   0  0  0  0  0  0  0  0  0  0  0  0
    1.9747  -12.2738   -0.0000 N   0  0  0  0  0  0  0  0  0  0  0  0
    0.6757  -13.0238   -0.0000 S   0  0  0  0  0  0  0  0  0  0  0  0
   -0.0743  -11.7248   -0.0000 O   0  0  0  0  0  0  0  0  0  0  0  0
   -0.8243  -13.0238   -0.0000 O   0  0  0  0  0  0  0  0  0  0  0  0
    0.6757  -14.5238   -0.0000 C   0  0  0  0  0  0  0  0  0  0  0  0
   -0.6233  -15.2738   -0.0000 C   0  0  0  0  0  0  0  0  0  0  0  0
    1.9747  -15.2738   -0.0000 C   0  0  0  0  0  0  0  0  0  0  0  0
   -0.6233  -16.7738   -0.0000 C   0  0  0  0  0  0  0  0  0  0  0  0
    1.9747  -16.7738   -0.0000 C   0  0  0  0  0  0  0  0  0  0  0  0
   -1.9224  -17.5238   -0.0000 Cl  0  0  0  0  0  0  0  0  0  0  0  0
    0.6757  -17.5238   -0.0000 C   0  0  0  0  0  0  0  0  0  0  0  0
    0.6757  -19.0238   -0.0000 Cl  0  0  0  0  0  0  0  0  0  0  0  0
  1  2  1  0  0  0  0
  2  3  2  0  0  0  0
  2  4  1  0  0  0  0
  3  5  1  0  0  0  0
  3  6  1  0  0  0  0
  4  7  2  0  0  0  0
  6  8  2  0  0  0  0
  7  9  1  0  0  0  0
  9 10  2  0  0  0  0
  9 11  2  0  0  0  0
  9 12  1  0  0  0  0
 12 13  1  0  0  0  0
 13 14  1  0  0  0  0
 14 15  2  0  0  0  0
 14 16  1  0  0  0  0
 16 17  2  0  0  0  0
 16 18  1  0  0  0  0
 17 19  1  0  0  0  0
 18 20  2  0  0  0  0
 19 21  2  0  0  0  0
 19 22  1  0  0  0  0
 21 23  1  0  0  0  0
 22 24  2  0  0  0  0
 22 25  1  0  0  0  0
 25 26  1  0  0  0  0
 25 27  1  0  0  0  0
 26 28  2  0  0  0  0
 26 29  1  0  0  0  0
 27 30  1  0  0  0  0
 27 31  2  0  0  0  0
 28 32  1  0  0  0  0
 29 33  2  0  0  0  0
 30 34  2  0  0  0  0
 30 35  1  0  0  0  0
 31 36  1  0  0  0  0
 32 37  2  0  0  0  0
 34 38  1  0  0  0  0
 35 39  2  0  0  0  0
 37 40  1  0  0  0  0
 38 41  2  0  0  0  0
 39 42  1  0  0  0  0
 42 43  2  0  0  0  0
 42 44  1  0  0  0  0
 44 45  1  0  0  0  0
 45 46  1  0  0  0  0
 46 47  2  0  0  0  0
 46 48  2  0  0  0  0
 46 49  1  0  0  0  0
 49 50  2  0  0  0  0
 49 51  1  0  0  0  0
 50 52  1  0  0  0  0
 51 53  2  0  0  0  0
 52 54  1  0  0  0  0
 52 55  2  0  0  0  0
 55 56  1  0  0  0  0
  7  8  1  0  0  0  0
 20 21  1  0  0  0  0
 23 24  1  0  0  0  0
 33 37  1  0  0  0  0
 34 36  1  0  0  0  0
 39 41  1  0  0  0  0
 53 55  1  0  0  0  0
M  END
>  <S/N>
457

>  <Compound ID>
C_474

>  <PubChem CID>
155530855

>  <Isomeric SMILES>
CC1=CC=C(C=C1)C(C2=CNC3=C2C=C(C=C3)C(=O)NNS(=O)(=O)C4=CC(=C(C=C4)Cl)Cl)C5=CNC6=C5C=C(C=C6)C(=O)NNS(=O)(=O)C7=CC(=C(C=C7)Cl)Cl

>  <IC50 (�M)>
0.1

>  <pIC50>
7

$$$$
C_475
Actelion Java MolfileCreator 1.0

 34 38  0  0  0  0  0  0  0  0999 V2000
    2.7026    0.9945   -0.0000 S   0  0  0  0  0  0  0  0  0  0  0  0
    2.5981   -0.0000   -0.0000 C   0  0  0  0  0  0  0  0  0  0  0  0
    3.6808    1.2024   -0.0000 C   0  0  0  0  0  0  0  0  0  0  0  0
    3.5116   -0.4067   -0.0000 N   0  0  0  0  0  0  0  0  0  0  0  0
    1.7321   -0.5000   -0.0000 N   0  0  0  0  0  0  0  0  0  0  0  0
    4.1808    0.3364   -0.0000 C   0  0  0  0  0  0  0  0  0  0  0  0
    0.8660   -0.0000   -0.0000 N   0  0  0  0  0  0  0  0  0  0  0  0
    5.1753    0.2319   -0.0000 C   0  0  0  0  0  0  0  0  0  0  0  0
    0.0000   -0.5000   -0.0000 C   0  0  0  0  0  0  0  0  0  0  0  0
    5.5820   -0.6817   -0.0000 C   0  0  0  0  0  0  0  0  0  0  0  0
    5.7631    1.0409   -0.0000 C   0  0  0  0  0  0  0  0  0  0  0  0
   -0.9135   -0.0933   -0.0000 C   0  0  0  0  0  0  0  0  0  0  0  0
   -0.1045   -1.4945   -0.0000 C   0  0  0  0  0  0  0  0  0  0  0  0
    6.5765   -0.7862   -0.0000 C   0  0  0  0  0  0  0  0  0  0  0  0
    6.7576    0.9364   -0.0000 C   0  0  0  0  0  0  0  0  0  0  0  0
   -1.1215    0.8849   -0.0000 O   0  0  0  0  0  0  0  0  0  0  0  0
   -1.5827   -0.8364   -0.0000 N   0  0  0  0  0  0  0  0  0  0  0  0
   -1.0827   -1.7024   -0.0000 C   0  0  0  0  0  0  0  0  0  0  0  0
    0.5646   -2.2377   -0.0000 C   0  0  0  0  0  0  0  0  0  0  0  0
    7.1643    0.0228   -0.0000 C   0  0  0  0  0  0  0  0  0  0  0  0
   -2.5772   -0.7319   -0.0000 C   0  0  0  0  0  0  0  0  0  0  0  0
   -1.3917   -2.6535   -0.0000 C   0  0  0  0  0  0  0  0  0  0  0  0
    0.2556   -3.1887   -0.0000 C   0  0  0  0  0  0  0  0  0  0  0  0
    8.1588   -0.0817   -0.0000 O   0  0  0  0  0  0  0  0  0  0  0  0
   -3.1650   -1.5409   -0.0000 C   0  0  0  0  0  0  0  0  0  0  0  0
   -0.7226   -3.3966   -0.0000 C   0  0  0  0  0  0  0  0  0  0  0  0
    0.9247   -3.9319   -0.0000 C   0  0  0  0  0  0  0  0  0  0  0  0
    8.7466    0.7273   -0.0000 C   0  0  0  0  0  0  0  0  0  0  0  0
   -4.1595   -1.4364   -0.0000 C   0  0  0  0  0  0  0  0  0  0  0  0
   -2.7582   -2.4544   -0.0000 C   0  0  0  0  0  0  0  0  0  0  0  0
   -4.5662   -0.5228   -0.0000 F   0  0  0  0  0  0  0  0  0  0  0  0
   -4.7473   -2.2454   -0.0000 C   0  0  0  0  0  0  0  0  0  0  0  0
   -3.3460   -3.2635   -0.0000 C   0  0  0  0  0  0  0  0  0  0  0  0
   -4.3406   -3.1589   -0.0000 C   0  0  0  0  0  0  0  0  0  0  0  0
  1  2  1  0  0  0  0
  1  3  1  0  0  0  0
  2  4  2  0  0  0  0
  2  5  1  0  0  0  0
  3  6  2  0  0  0  0
  5  7  2  3  0  0  0
  6  8  1  0  0  0  0
  7  9  1  0  0  0  0
  8 10  2  0  0  0  0
  8 11  1  0  0  0  0
  9 12  2  0  0  0  0
  9 13  1  0  0  0  0
 10 14  1  0  0  0  0
 11 15  2  0  0  0  0
 12 16  1  0  0  0  0
 12 17  1  0  0  0  0
 13 18  2  0  0  0  0
 13 19  1  0  0  0  0
 14 20  2  0  0  0  0
 17 21  1  0  0  0  0
 18 22  1  0  0  0  0
 19 23  2  0  0  0  0
 20 24  1  0  0  0  0
 21 25  1  0  0  0  0
 22 26  2  0  0  0  0
 23 27  1  0  0  0  0
 24 28  1  0  0  0  0
 25 29  2  0  0  0  0
 25 30  1  0  0  0  0
 29 31  1  0  0  0  0
 29 32  1  0  0  0  0
 30 33  2  0  0  0  0
 32 34  2  0  0  0  0
  4  6  1  0  0  0  0
 15 20  1  0  0  0  0
 17 18  1  0  0  0  0
 23 26  1  0  0  0  0
 33 34  1  0  0  0  0
M  END
>  <S/N>
458

>  <Compound ID>
C_475

>  <PubChem CID>
155531052

>  <Isomeric SMILES>
CC1=CC2=C(C=C1)N(C(=C2N=NC3=NC(=CS3)C4=CC=C(C=C4)OC)O)CC5=CC=CC=C5F

>  <IC50 (�M)>
5.3

>  <pIC50>
5.28

$$$$
C_476
Actelion Java MolfileCreator 1.0

 39 45  0  0  0  0  0  0  0  0999 V2000
    5.0636   -3.7751   -0.0000 F   0  0  0  0  0  0  0  0  0  0  0  0
    4.6001   -2.3486   -0.0000 C   0  0  0  0  0  0  0  0  0  0  0  0
    3.1329   -2.0367   -0.0000 C   0  0  0  0  0  0  0  0  0  0  0  0
    5.6038   -1.2338   -0.0000 C   0  0  0  0  0  0  0  0  0  0  0  0
    2.6694   -0.6101   -0.0000 C   0  0  0  0  0  0  0  0  0  0  0  0
    5.1403    0.1927   -0.0000 C   0  0  0  0  0  0  0  0  0  0  0  0
    1.2990   -0.0000   -0.0000 C   0  0  0  0  0  0  0  0  0  0  0  0
    3.6731    0.5046   -0.0000 C   0  0  0  0  0  0  0  0  0  0  0  0
    0.0000   -0.7500   -0.0000 C   0  0  0  0  0  0  0  0  0  0  0  0
    1.4558    1.4918   -0.0000 C   0  0  0  0  0  0  0  0  0  0  0  0
    2.9231    1.8037   -0.0000 N   0  0  0  0  0  0  0  0  0  0  0  0
   -1.3703   -0.1399   -0.0000 N   0  0  0  0  0  0  0  0  0  0  0  0
   -0.1568   -2.2418   -0.0000 N   0  0  0  0  0  0  0  0  0  0  0  0
    0.3411    2.4955   -0.0000 C   0  0  0  0  0  0  0  0  0  0  0  0
   -2.3740   -1.2546   -0.0000 C   0  0  0  0  0  0  0  0  0  0  0  0
    0.9579   -3.2455   -0.0000 C   0  0  0  0  0  0  0  0  0  0  0  0
   -1.6240   -2.5537   -0.0000 C   0  0  0  0  0  0  0  0  0  0  0  0
   -1.0855    2.0320   -0.0000 C   0  0  0  0  0  0  0  0  0  0  0  0
    0.6530    3.9627   -0.0000 C   0  0  0  0  0  0  0  0  0  0  0  0
   -3.8658   -1.0978   -0.0000 C   0  0  0  0  0  0  0  0  0  0  0  0
    0.6461   -4.7127   -0.0000 C   0  0  0  0  0  0  0  0  0  0  0  0
    2.3845   -2.7820   -0.0000 C   0  0  0  0  0  0  0  0  0  0  0  0
   -2.2341   -3.9240   -0.0000 C   0  0  0  0  0  0  0  0  0  0  0  0
   -2.2002    3.0356   -0.0000 C   0  0  0  0  0  0  0  0  0  0  0  0
   -0.4617    4.9664   -0.0000 C   0  0  0  0  0  0  0  0  0  0  0  0
   -4.4759    0.2725   -0.0000 C   0  0  0  0  0  0  0  0  0  0  0  0
   -4.7475   -2.3113   -0.0000 C   0  0  0  0  0  0  0  0  0  0  0  0
    1.7608   -5.7164   -0.0000 C   0  0  0  0  0  0  0  0  0  0  0  0
    3.4992   -3.7856   -0.0000 C   0  0  0  0  0  0  0  0  0  0  0  0
   -3.7259   -4.0808   -0.0000 C   0  0  0  0  0  0  0  0  0  0  0  0
   -1.3524   -5.1375   -0.0000 C   0  0  0  0  0  0  0  0  0  0  0  0
   -1.8883    4.5029   -0.0000 C   0  0  0  0  0  0  0  0  0  0  0  0
   -5.9677    0.4293   -0.0000 C   0  0  0  0  0  0  0  0  0  0  0  0
   -6.2393   -2.1546   -0.0000 C   0  0  0  0  0  0  0  0  0  0  0  0
    3.1874   -5.2529   -0.0000 C   0  0  0  0  0  0  0  0  0  0  0  0
   -4.3360   -5.4511   -0.0000 C   0  0  0  0  0  0  0  0  0  0  0  0
   -1.9625   -6.5078   -0.0000 C   0  0  0  0  0  0  0  0  0  0  0  0
   -6.8494   -0.7842   -0.0000 C   0  0  0  0  0  0  0  0  0  0  0  0
   -3.4543   -6.6646   -0.0000 C   0  0  0  0  0  0  0  0  0  0  0  0
  1  2  1  0  0  0  0
  2  3  2  0  0  0  0
  2  4  1  0  0  0  0
  3  5  1  0  0  0  0
  4  6  2  0  0  0  0
  5  7  1  0  0  0  0
  5  8  2  0  0  0  0
  7  9  1  0  0  0  0
  7 10  2  0  0  0  0
  8 11  1  0  0  0  0
  9 12  2  0  0  0  0
  9 13  1  0  0  0  0
 10 14  1  0  0  0  0
 12 15  1  0  0  0  0
 13 16  1  0  0  0  0
 13 17  1  0  0  0  0
 14 18  2  0  0  0  0
 14 19  1  0  0  0  0
 15 20  1  0  0  0  0
 16 21  2  0  0  0  0
 16 22  1  0  0  0  0
 17 23  1  0  0  0  0
 18 24  1  0  0  0  0
 19 25  2  0  0  0  0
 20 26  2  0  0  0  0
 20 27  1  0  0  0  0
 21 28  1  0  0  0  0
 22 29  2  0  0  0  0
 23 30  2  0  0  0  0
 23 31  1  0  0  0  0
 24 32  2  0  0  0  0
 26 33  1  0  0  0  0
 27 34  2  0  0  0  0
 28 35  2  0  0  0  0
 30 36  1  0  0  0  0
 31 37  2  0  0  0  0
 33 38  2  0  0  0  0
 36 39  2  0  0  0  0
  6  8  1  0  0  0  0
 10 11  1  0  0  0  0
 15 17  2  0  0  0  0
 25 32  1  0  0  0  0
 29 35  1  0  0  0  0
 34 38  1  0  0  0  0
 37 39  1  0  0  0  0
M  END
>  <S/N>
459

>  <Compound ID>
C_476

>  <PubChem CID>
155531297

>  <Isomeric SMILES>
C1=CC=C(C=C1)C2=C(C3=C(N2)C=CC(=C3)F)C4=NC(=C(N4C5=CC=CC=C5)C6=CC=CC=C6)C7=CC=CC=C7

>  <IC50 (�M)>
8.3

>  <pIC50>
5.08

$$$$
C_477
Actelion Java MolfileCreator 1.0

 20 22  0  0  0  0  0  0  0  0999 V2000
    2.6456   -0.0933   -0.0000 S   0  0  0  0  0  0  0  0  0  0  0  0
    3.3147   -0.8364   -0.0000 C   0  0  0  0  0  0  0  0  0  0  0  0
    1.7321   -0.5000   -0.0000 C   0  0  0  0  0  0  0  0  0  0  0  0
    4.3092   -0.7319   -0.0000 O   0  0  0  0  0  0  0  0  0  0  0  0
    2.8147   -1.7024   -0.0000 N   0  0  0  0  0  0  0  0  0  0  0  0
    1.8366   -1.4945   -0.0000 C   0  0  0  0  0  0  0  0  0  0  0  0
    0.8660   -0.0000   -0.0000 C   0  0  0  0  0  0  0  0  0  0  0  0
    1.0934   -2.1637   -0.0000 O   0  0  0  0  0  0  0  0  0  0  0  0
    0.0000   -0.5000   -0.0000 C   0  0  0  0  0  0  0  0  0  0  0  0
   -0.8660    0.0000   -0.0000 C   0  0  0  0  0  0  0  0  0  0  0  0
   -0.0000   -1.5000   -0.0000 C   0  0  0  0  0  0  0  0  0  0  0  0
   -1.7321   -0.5000   -0.0000 C   0  0  0  0  0  0  0  0  0  0  0  0
   -0.8660   -2.0000   -0.0000 C   0  0  0  0  0  0  0  0  0  0  0  0
   -1.7321   -1.5000   -0.0000 C   0  0  0  0  0  0  0  0  0  0  0  0
   -2.5981   -2.0000   -0.0000 N   0  0  0  0  0  0  0  0  0  0  0  0
   -3.5116   -1.5933   -0.0000 C   0  0  0  0  0  0  0  0  0  0  0  0
   -2.7026   -2.9945   -0.0000 C   0  0  0  0  0  0  0  0  0  0  0  0
   -4.1808   -2.3364   -0.0000 N   0  0  0  0  0  0  0  0  0  0  0  0
   -3.7195   -0.6151   -0.0000 C   0  0  0  0  0  0  0  0  0  0  0  0
   -3.6808   -3.2024   -0.0000 C   0  0  0  0  0  0  0  0  0  0  0  0
  1  2  1  0  0  0  0
  1  3  1  0  0  0  0
  2  4  2  0  0  0  0
  2  5  1  0  0  0  0
  3  6  1  0  0  0  0
  3  7  2  0  0  0  0
  6  8  2  0  0  0  0
  7  9  1  0  0  0  0
  9 10  2  0  0  0  0
  9 11  1  0  0  0  0
 10 12  1  0  0  0  0
 11 13  2  0  0  0  0
 12 14  2  0  0  0  0
 14 15  1  0  0  0  0
 15 16  1  0  0  0  0
 15 17  1  0  0  0  0
 16 18  2  0  0  0  0
 16 19  1  0  0  0  0
 17 20  2  0  0  0  0
  5  6  1  0  0  0  0
 13 14  1  0  0  0  0
 18 20  1  0  0  0  0
M  END
>  <S/N>
460

>  <Compound ID>
C_477

>  <PubChem CID>
155531323

>  <Isomeric SMILES>
CC1=NC=CN1C2=CC=C(C=C2)/C=C/3\C(=O)NC(=O)S3

>  <IC50 (�M)>
0.55

>  <pIC50>
6.26

$$$$
C_478
Actelion Java MolfileCreator 1.0

 35 38  0  0  1  0  0  0  0  0999 V2000
    7.0873   -4.9499   -0.0000 F   0  0  0  0  0  0  0  0  0  0  0  0
    6.1737   -5.3566   -0.0000 C   0  0  0  0  0  0  0  0  0  0  0  0
    6.5805   -6.2702   -0.0000 F   0  0  0  0  0  0  0  0  0  0  0  0
    5.2602   -5.7634   -0.0000 F   0  0  0  0  0  0  0  0  0  0  0  0
    5.7670   -4.4431   -0.0000 C   0  0  0  0  0  0  0  0  0  0  0  0
    6.3548   -3.6341   -0.0000 C   0  0  0  0  0  0  0  0  0  0  0  0
    4.7725   -4.3385   -0.0000 C   0  0  0  0  0  0  0  0  0  0  0  0
    5.9480   -2.7205   -0.0000 C   0  0  0  0  0  0  0  0  0  0  0  0
    4.3657   -3.4250   -0.0000 C   0  0  0  0  0  0  0  0  0  0  0  0
    4.9535   -2.6160   -0.0000 C   0  0  0  0  0  0  0  0  0  0  0  0
    4.5468   -1.7024   -0.0000 C   0  0  0  0  0  0  0  0  0  0  0  0
    5.0468   -0.8364   -0.0000 N   0  0  0  0  0  0  0  0  0  0  0  0
    3.5686   -1.4945   -0.0000 C   0  0  0  0  0  0  0  0  0  0  0  0
    4.3776   -0.0933   -0.0000 N   0  0  0  0  0  0  0  0  0  0  0  0
    3.4641   -0.5000   -0.0000 N   0  0  0  0  0  0  0  0  0  0  0  0
    2.5981   -0.0000   -0.0000 C   0  0  0  0  0  0  0  0  0  0  0  0
    1.7321   -0.5000   -0.0000 C   0  0  0  0  0  0  0  0  0  0  0  0
    0.8660   -0.0000   -0.0000 O   0  0  0  0  0  0  0  0  0  0  0  0
    1.7321   -1.5000   -0.0000 C   0  0  0  0  0  0  0  0  0  0  0  0
    0.0000   -0.5000   -0.0000 C   0  0  0  0  0  0  0  0  0  0  0  0
   -0.8660    0.0000   -0.0000 C   0  0  0  0  0  0  0  0  0  0  0  0
   -0.0000   -1.5000   -0.0000 C   0  0  0  0  0  0  0  0  0  0  0  0
   -0.8660    1.0000   -0.0000 O   0  0  0  0  0  0  0  0  0  0  0  0
   -1.7321   -0.5000   -0.0000 C   0  0  0  0  0  0  0  0  0  0  0  0
   -0.8660   -2.0000   -0.0000 C   0  0  0  0  0  0  0  0  0  0  0  0
   -1.7321    1.5000   -0.0000 C   0  0  0  0  0  0  0  0  0  0  0  0
   -1.7321   -1.5000   -0.0000 C   0  0  0  0  0  0  0  0  0  0  0  0
   -2.5981   -2.0000   -0.0000 C   0  0  0  0  0  0  0  0  0  0  0  0
   -3.4641   -1.5000   -0.0000 C   0  0  0  0  0  0  0  0  0  0  0  0
   -2.5981   -3.0000   -0.0000 C   0  0  0  0  0  0  0  0  0  0  0  0
   -4.3301   -2.0000   -0.0000 C   0  0  0  0  0  0  0  0  0  0  0  0
   -3.4641   -3.5000   -0.0000 C   0  0  0  0  0  0  0  0  0  0  0  0
   -4.3301   -3.0000   -0.0000 C   0  0  0  0  0  0  0  0  0  0  0  0
   -5.1962   -3.5000   -0.0000 O   0  0  0  0  0  0  0  0  0  0  0  0
   -5.1962   -4.5000   -0.0000 C   0  0  0  0  0  0  0  0  0  0  0  0
  1  2  1  0  0  0  0
  2  3  1  0  0  0  0
  2  4  1  0  0  0  0
  2  5  1  0  0  0  0
  5  6  2  0  0  0  0
  5  7  1  0  0  0  0
  6  8  1  0  0  0  0
  7  9  2  0  0  0  0
  8 10  2  0  0  0  0
 10 11  1  0  0  0  0
 11 12  1  0  0  0  0
 11 13  2  0  0  0  0
 12 14  2  0  0  0  0
 13 15  1  0  0  0  0
 15 16  1  0  0  0  0
 16 17  1  0  0  0  0
 17 18  1  0  0  0  0
 17 19  1  1  0  0  0
 18 20  1  0  0  0  0
 20 21  2  0  0  0  0
 20 22  1  0  0  0  0
 21 23  1  0  0  0  0
 21 24  1  0  0  0  0
 22 25  2  0  0  0  0
 23 26  1  0  0  0  0
 24 27  2  0  0  0  0
 27 28  1  0  0  0  0
 28 29  2  0  0  0  0
 28 30  1  0  0  0  0
 29 31  1  0  0  0  0
 30 32  2  0  0  0  0
 31 33  2  0  0  0  0
 33 34  1  0  0  0  0
 34 35  1  0  0  0  0
  9 10  1  0  0  0  0
 14 15  1  0  0  0  0
 25 27  1  0  0  0  0
 32 33  1  0  0  0  0
M  END
>  <S/N>
461

>  <Compound ID>
C_478

>  <PubChem CID>
155531355

>  <Isomeric SMILES>
C[C@H](CN1C=C(N=N1)C2=CC=C(C=C2)C(F)(F)F)OC3=C(C=C(C=C3)C4=CC=C(C=C4)OC)OC

>  <IC50 (�M)>
14

>  <pIC50>
4.85

$$$$
C_479
Actelion Java MolfileCreator 1.0

 32 36  0  0  0  0  0  0  0  0999 V2000
    4.3301   -0.0000   -0.0000 F   0  0  0  0  0  0  0  0  0  0  0  0
    3.4641   -0.5000   -0.0000 C   0  0  0  0  0  0  0  0  0  0  0  0
    2.5981   -0.0000   -0.0000 C   0  0  0  0  0  0  0  0  0  0  0  0
    3.4641   -1.5000   -0.0000 C   0  0  0  0  0  0  0  0  0  0  0  0
    1.7321   -0.5000   -0.0000 C   0  0  0  0  0  0  0  0  0  0  0  0
    2.5981   -2.0000   -0.0000 C   0  0  0  0  0  0  0  0  0  0  0  0
    1.7321   -1.5000   -0.0000 C   0  0  0  0  0  0  0  0  0  0  0  0
    0.8660   -0.0000   -0.0000 C   0  0  0  0  0  0  0  0  0  0  0  0
    0.8660    1.0000   -0.0000 C   0  0  0  0  0  0  0  0  0  0  0  0
    0.0000   -0.5000   -0.0000 C   0  0  0  0  0  0  0  0  0  0  0  0
   -0.0000    1.5000   -0.0000 C   0  0  0  0  0  0  0  0  0  0  0  0
    1.7321    1.5000   -0.0000 C   0  0  0  0  0  0  0  0  0  0  0  0
   -0.8660    0.0000   -0.0000 C   0  0  0  0  0  0  0  0  0  0  0  0
   -0.0000   -1.5000   -0.0000 C   0  0  0  0  0  0  0  0  0  0  0  0
   -1.0180    0.8015   -0.0000 O   0  0  0  0  0  0  0  0  0  0  0  0
   -0.0000    2.5000   -0.0000 O   0  0  0  0  0  0  0  0  0  0  0  0
    2.5981    1.0000   -0.0000 N   0  0  0  0  0  0  0  0  0  0  0  0
    1.7321    2.5000   -0.0000 C   0  0  0  0  0  0  0  0  0  0  0  0
   -0.9855    1.1741   -0.0000 O   0  0  0  0  0  0  0  0  0  0  0  0
   -1.7321   -0.5000   -0.0000 O   0  0  0  0  0  0  0  0  0  0  0  0
    0.8660   -2.0000   -0.0000 N   0  0  0  0  0  0  0  0  0  0  0  0
   -0.8660   -2.0000   -0.0000 C   0  0  0  0  0  0  0  0  0  0  0  0
    0.8660    3.0000   -0.0000 C   0  0  0  0  0  0  0  0  0  0  0  0
    2.5981    3.0000   -0.0000 C   0  0  0  0  0  0  0  0  0  0  0  0
   -1.7321   -1.5000   -0.0000 C   0  0  0  0  0  0  0  0  0  0  0  0
   -0.8660   -3.0000   -0.0000 C   0  0  0  0  0  0  0  0  0  0  0  0
    0.8660    4.0000   -0.0000 C   0  0  0  0  0  0  0  0  0  0  0  0
    2.5981    4.0000   -0.0000 C   0  0  0  0  0  0  0  0  0  0  0  0
   -2.5981   -2.0000   -0.0000 C   0  0  0  0  0  0  0  0  0  0  0  0
   -1.7321   -3.5000   -0.0000 C   0  0  0  0  0  0  0  0  0  0  0  0
    1.7321    4.5000   -0.0000 C   0  0  0  0  0  0  0  0  0  0  0  0
   -2.5981   -3.0000   -0.0000 C   0  0  0  0  0  0  0  0  0  0  0  0
  1  2  1  0  0  0  0
  2  3  2  0  0  0  0
  2  4  1  0  0  0  0
  3  5  1  0  0  0  0
  4  6  2  0  0  0  0
  5  7  2  0  0  0  0
  5  8  1  0  0  0  0
  8  9  1  0  0  0  0
  8 10  1  0  0  0  0
  9 11  1  0  0  0  0
  9 12  2  0  0  0  0
 10 13  1  0  0  0  0
 10 14  2  0  0  0  0
 11 15  2  0  0  0  0
 11 16  1  0  0  0  0
 12 17  1  0  0  0  0
 12 18  1  0  0  0  0
 13 19  2  0  0  0  0
 13 20  1  0  0  0  0
 14 21  1  0  0  0  0
 14 22  1  0  0  0  0
 16 23  1  0  0  0  0
 18 24  2  0  0  0  0
 20 25  1  0  0  0  0
 22 26  2  0  0  0  0
 23 27  2  0  0  0  0
 24 28  1  0  0  0  0
 25 29  2  0  0  0  0
 26 30  1  0  0  0  0
 27 31  1  0  0  0  0
 29 32  1  0  0  0  0
  6  7  1  0  0  0  0
 18 23  1  0  0  0  0
 22 25  1  0  0  0  0
 28 31  2  0  0  0  0
 30 32  2  0  0  0  0
M  END
>  <S/N>
462

>  <Compound ID>
C_479

>  <PubChem CID>
155531367

>  <Isomeric SMILES>
C1=CC=C2C(=C1)C(=C(C(=O)O2)C(C3=CC(=CC=C3)F)C4=C(C5=CC=CC=C5OC4=O)N)N

>  <IC50 (�M)>
20

>  <pIC50>
4.7

$$$$
C_480
Actelion Java MolfileCreator 1.0

 29 32  0  0  0  0  0  0  0  0999 V2000
    3.4641    5.5000   -0.0000 Br  0  0  0  0  0  0  0  0  0  0  0  0
    3.4641    4.5000   -0.0000 C   0  0  0  0  0  0  0  0  0  0  0  0
    2.5981    4.0000   -0.0000 C   0  0  0  0  0  0  0  0  0  0  0  0
    4.3301    4.0000   -0.0000 C   0  0  0  0  0  0  0  0  0  0  0  0
    2.5981    3.0000   -0.0000 C   0  0  0  0  0  0  0  0  0  0  0  0
    4.3301    3.0000   -0.0000 C   0  0  0  0  0  0  0  0  0  0  0  0
    3.4641    2.5000   -0.0000 C   0  0  0  0  0  0  0  0  0  0  0  0
    3.4641    1.5000   -0.0000 C   0  0  0  0  0  0  0  0  0  0  0  0
    2.5981    1.0000   -0.0000 N   0  0  0  0  0  0  0  0  0  0  0  0
    4.3301    1.0000   -0.0000 C   0  0  0  0  0  0  0  0  0  0  0  0
    2.5981   -0.0000   -0.0000 C   0  0  0  0  0  0  0  0  0  0  0  0
    4.3301   -0.0000   -0.0000 C   0  0  0  0  0  0  0  0  0  0  0  0
    1.7321   -0.5000   -0.0000 S   0  0  0  0  0  0  0  0  0  0  0  0
    3.4641   -0.5000   -0.0000 N   0  0  0  0  0  0  0  0  0  0  0  0
    5.1962   -0.5000   -0.0000 C   0  0  0  0  0  0  0  0  0  0  0  0
    0.8660   -0.0000   -0.0000 C   0  0  0  0  0  0  0  0  0  0  0  0
    5.1962   -1.5000   -0.0000 C   0  0  0  0  0  0  0  0  0  0  0  0
    6.0622   -0.0000   -0.0000 C   0  0  0  0  0  0  0  0  0  0  0  0
    0.0000   -0.5000   -0.0000 C   0  0  0  0  0  0  0  0  0  0  0  0
    6.0622   -2.0000   -0.0000 C   0  0  0  0  0  0  0  0  0  0  0  0
    6.9282   -0.5000   -0.0000 C   0  0  0  0  0  0  0  0  0  0  0  0
   -0.8660    0.0000   -0.0000 C   0  0  0  0  0  0  0  0  0  0  0  0
   -0.0000   -1.5000   -0.0000 C   0  0  0  0  0  0  0  0  0  0  0  0
    6.9282   -1.5000   -0.0000 C   0  0  0  0  0  0  0  0  0  0  0  0
   -0.8660    1.0000   -0.0000 F   0  0  0  0  0  0  0  0  0  0  0  0
   -1.7321   -0.5000   -0.0000 C   0  0  0  0  0  0  0  0  0  0  0  0
   -0.8660   -2.0000   -0.0000 C   0  0  0  0  0  0  0  0  0  0  0  0
    7.7942   -2.0000   -0.0000 Br  0  0  0  0  0  0  0  0  0  0  0  0
   -1.7321   -1.5000   -0.0000 C   0  0  0  0  0  0  0  0  0  0  0  0
  1  2  1  0  0  0  0
  2  3  2  0  0  0  0
  2  4  1  0  0  0  0
  3  5  1  0  0  0  0
  4  6  2  0  0  0  0
  5  7  2  0  0  0  0
  7  8  1  0  0  0  0
  8  9  2  0  0  0  0
  8 10  1  0  0  0  0
  9 11  1  0  0  0  0
 10 12  2  0  0  0  0
 11 13  1  0  0  0  0
 11 14  2  0  0  0  0
 12 15  1  0  0  0  0
 13 16  1  0  0  0  0
 15 17  2  0  0  0  0
 15 18  1  0  0  0  0
 16 19  1  0  0  0  0
 17 20  1  0  0  0  0
 18 21  2  0  0  0  0
 19 22  2  0  0  0  0
 19 23  1  0  0  0  0
 20 24  2  0  0  0  0
 22 25  1  0  0  0  0
 22 26  1  0  0  0  0
 23 27  2  0  0  0  0
 24 28  1  0  0  0  0
 26 29  2  0  0  0  0
  6  7  1  0  0  0  0
 12 14  1  0  0  0  0
 21 24  1  0  0  0  0
 27 29  1  0  0  0  0
M  END
>  <S/N>
463

>  <Compound ID>
C_480

>  <PubChem CID>
155531645

>  <Isomeric SMILES>
C1=CC=C(C(=C1)CSC2=NC(=CC(=N2)C3=CC=C(C=C3)Br)C4=CC=C(C=C4)Br)F

>  <IC50 (�M)>
19

>  <pIC50>
4.72

$$$$
C_481
Actelion Java MolfileCreator 1.0

 38 42  0  0  0  0  0  0  0  0999 V2000
    5.6306  -10.5243   -0.0000 Br  0  0  0  0  0  0  0  0  0  0  0  0
    5.2238   -9.6108   -0.0000 C   0  0  0  0  0  0  0  0  0  0  0  0
    5.8116   -8.8017   -0.0000 C   0  0  0  0  0  0  0  0  0  0  0  0
    4.2293   -9.5062   -0.0000 C   0  0  0  0  0  0  0  0  0  0  0  0
    5.4049   -7.8882   -0.0000 C   0  0  0  0  0  0  0  0  0  0  0  0
    3.8226   -8.5927   -0.0000 C   0  0  0  0  0  0  0  0  0  0  0  0
    5.9927   -7.0792   -0.0000 C   0  0  0  0  0  0  0  0  0  0  0  0
    4.4104   -7.7837   -0.0000 C   0  0  0  0  0  0  0  0  0  0  0  0
    6.9872   -7.1837   -0.0000 O   0  0  0  0  0  0  0  0  0  0  0  0
    5.5859   -6.1656   -0.0000 C   0  0  0  0  0  0  0  0  0  0  0  0
    4.0036   -6.8701   -0.0000 O   0  0  0  0  0  0  0  0  0  0  0  0
    4.5914   -6.0611   -0.0000 C   0  0  0  0  0  0  0  0  0  0  0  0
    6.1737   -5.3566   -0.0000 C   0  0  0  0  0  0  0  0  0  0  0  0
    4.1847   -5.1476   -0.0000 C   0  0  0  0  0  0  0  0  0  0  0  0
    7.1682   -5.4611   -0.0000 O   0  0  0  0  0  0  0  0  0  0  0  0
    5.7670   -4.4431   -0.0000 C   0  0  0  0  0  0  0  0  0  0  0  0
    4.7725   -4.3385   -0.0000 C   0  0  0  0  0  0  0  0  0  0  0  0
    4.3657   -3.4250   -0.0000 O   0  0  0  0  0  0  0  0  0  0  0  0
    4.9535   -2.6160   -0.0000 C   0  0  0  0  0  0  0  0  0  0  0  0
    4.5468   -1.7024   -0.0000 C   0  0  0  0  0  0  0  0  0  0  0  0
    5.0468   -0.8364   -0.0000 N   0  0  0  0  0  0  0  0  0  0  0  0
    3.5686   -1.4945   -0.0000 C   0  0  0  0  0  0  0  0  0  0  0  0
    4.3776   -0.0933   -0.0000 N   0  0  0  0  0  0  0  0  0  0  0  0
    3.4641   -0.5000   -0.0000 N   0  0  0  0  0  0  0  0  0  0  0  0
    2.5981   -0.0000   -0.0000 C   0  0  0  0  0  0  0  0  0  0  0  0
    1.7321   -0.5000   -0.0000 C   0  0  0  0  0  0  0  0  0  0  0  0
    1.7321   -1.5000   -0.0000 O   0  0  0  0  0  0  0  0  0  0  0  0
    0.8660   -0.0000   -0.0000 N   0  0  0  0  0  0  0  0  0  0  0  0
    0.0000   -0.5000   -0.0000 C   0  0  0  0  0  0  0  0  0  0  0  0
   -0.8660    0.0000   -0.0000 C   0  0  0  0  0  0  0  0  0  0  0  0
   -0.0000   -1.5000   -0.0000 C   0  0  0  0  0  0  0  0  0  0  0  0
   -0.8660    1.0000   -0.0000 O   0  0  0  0  0  0  0  0  0  0  0  0
   -1.7321   -0.5000   -0.0000 C   0  0  0  0  0  0  0  0  0  0  0  0
   -0.8660   -2.0000   -0.0000 C   0  0  0  0  0  0  0  0  0  0  0  0
   -1.7321    1.5000   -0.0000 C   0  0  0  0  0  0  0  0  0  0  0  0
   -1.7321   -1.5000   -0.0000 C   0  0  0  0  0  0  0  0  0  0  0  0
   -2.5981   -2.0000   -0.0000 O   0  0  0  0  0  0  0  0  0  0  0  0
   -2.5981   -3.0000   -0.0000 C   0  0  0  0  0  0  0  0  0  0  0  0
  1  2  1  0  0  0  0
  2  3  2  0  0  0  0
  2  4  1  0  0  0  0
  3  5  1  0  0  0  0
  4  6  2  0  0  0  0
  5  7  1  0  0  0  0
  5  8  2  0  0  0  0
  7  9  2  0  0  0  0
  7 10  1  0  0  0  0
  8 11  1  0  0  0  0
 10 12  2  0  0  0  0
 10 13  1  0  0  0  0
 12 14  1  0  0  0  0
 13 15  1  0  0  0  0
 13 16  2  0  0  0  0
 14 17  2  0  0  0  0
 17 18  1  0  0  0  0
 18 19  1  0  0  0  0
 19 20  1  0  0  0  0
 20 21  1  0  0  0  0
 20 22  2  0  0  0  0
 21 23  2  0  0  0  0
 22 24  1  0  0  0  0
 24 25  1  0  0  0  0
 25 26  1  0  0  0  0
 26 27  2  0  0  0  0
 26 28  1  0  0  0  0
 28 29  1  0  0  0  0
 29 30  2  0  0  0  0
 29 31  1  0  0  0  0
 30 32  1  0  0  0  0
 30 33  1  0  0  0  0
 31 34  2  0  0  0  0
 32 35  1  0  0  0  0
 33 36  2  0  0  0  0
 36 37  1  0  0  0  0
 37 38  1  0  0  0  0
  6  8  1  0  0  0  0
 11 12  1  0  0  0  0
 16 17  1  0  0  0  0
 23 24  1  0  0  0  0
 34 36  1  0  0  0  0
M  END
>  <S/N>
464

>  <Compound ID>
C_481

>  <PubChem CID>
155531901

>  <Isomeric SMILES>
COC1=CC(=C(C=C1)NC(=O)CN2C=C(N=N2)COC3=CC(=C4C(=C3)OC5=C(C4=O)C=C(C=C5)Br)O)OC

>  <IC50 (�M)>
3.07

>  <pIC50>
5.51

$$$$
C_482
Actelion Java MolfileCreator 1.0

 33 36  0  0  0  0  0  0  0  0999 V2000
   10.1904   -0.5093   -0.0000 Cl  0  0  0  0  0  0  0  0  0  0  0  0
   10.7782   -1.3183   -0.0000 C   0  0  0  0  0  0  0  0  0  0  0  0
   10.3714   -2.2319   -0.0000 C   0  0  0  0  0  0  0  0  0  0  0  0
   11.7727   -1.2138   -0.0000 C   0  0  0  0  0  0  0  0  0  0  0  0
    9.3769   -2.3364   -0.0000 C   0  0  0  0  0  0  0  0  0  0  0  0
   10.9592   -3.0409   -0.0000 C   0  0  0  0  0  0  0  0  0  0  0  0
   12.3605   -2.0228   -0.0000 C   0  0  0  0  0  0  0  0  0  0  0  0
    8.7078   -1.5933   -0.0000 O   0  0  0  0  0  0  0  0  0  0  0  0
    8.8769   -3.2024   -0.0000 N   0  0  0  0  0  0  0  0  0  0  0  0
   11.9537   -2.9364   -0.0000 C   0  0  0  0  0  0  0  0  0  0  0  0
    7.7942   -2.0000   -0.0000 C   0  0  0  0  0  0  0  0  0  0  0  0
    7.8988   -2.9945   -0.0000 N   0  0  0  0  0  0  0  0  0  0  0  0
    6.9282   -1.5000   -0.0000 C   0  0  0  0  0  0  0  0  0  0  0  0
    6.9282   -0.5000   -0.0000 C   0  0  0  0  0  0  0  0  0  0  0  0
    6.0622   -2.0000   -0.0000 C   0  0  0  0  0  0  0  0  0  0  0  0
    6.0622   -0.0000   -0.0000 C   0  0  0  0  0  0  0  0  0  0  0  0
    5.1962   -1.5000   -0.0000 C   0  0  0  0  0  0  0  0  0  0  0  0
    5.1962   -0.5000   -0.0000 C   0  0  0  0  0  0  0  0  0  0  0  0
    4.3301   -0.0000   -0.0000 C   0  0  0  0  0  0  0  0  0  0  0  0
    4.3301    1.0000   -0.0000 O   0  0  0  0  0  0  0  0  0  0  0  0
    3.4641   -0.5000   -0.0000 N   0  0  0  0  0  0  0  0  0  0  0  0
    2.5981   -0.0000   -0.0000 N   0  0  0  0  0  0  0  0  0  0  0  0
    1.7321   -0.5000   -0.0000 C   0  0  0  0  0  0  0  0  0  0  0  0
    1.7321   -1.5000   -0.0000 S   0  0  0  0  0  0  0  0  0  0  0  0
    0.8660   -0.0000   -0.0000 N   0  0  0  0  0  0  0  0  0  0  0  0
    0.0000   -0.5000   -0.0000 C   0  0  0  0  0  0  0  0  0  0  0  0
   -0.8660    0.0000   -0.0000 C   0  0  0  0  0  0  0  0  0  0  0  0
   -0.0000   -1.5000   -0.0000 C   0  0  0  0  0  0  0  0  0  0  0  0
   -1.7321   -0.5000   -0.0000 C   0  0  0  0  0  0  0  0  0  0  0  0
   -0.8660   -2.0000   -0.0000 C   0  0  0  0  0  0  0  0  0  0  0  0
   -2.5981    0.0000   -0.0000 O   0  0  0  0  0  0  0  0  0  0  0  0
   -1.7321   -1.5000   -0.0000 C   0  0  0  0  0  0  0  0  0  0  0  0
   -3.4641   -0.5000   -0.0000 C   0  0  0  0  0  0  0  0  0  0  0  0
  1  2  1  0  0  0  0
  2  3  2  0  0  0  0
  2  4  1  0  0  0  0
  3  5  1  0  0  0  0
  3  6  1  0  0  0  0
  4  7  2  0  0  0  0
  5  8  1  0  0  0  0
  5  9  2  0  0  0  0
  6 10  2  0  0  0  0
  8 11  1  0  0  0  0
  9 12  1  0  0  0  0
 11 13  1  0  0  0  0
 13 14  2  0  0  0  0
 13 15  1  0  0  0  0
 14 16  1  0  0  0  0
 15 17  2  0  0  0  0
 16 18  2  0  0  0  0
 18 19  1  0  0  0  0
 19 20  2  0  0  0  0
 19 21  1  0  0  0  0
 21 22  1  0  0  0  0
 22 23  1  0  0  0  0
 23 24  2  0  0  0  0
 23 25  1  0  0  0  0
 25 26  1  0  0  0  0
 26 27  2  0  0  0  0
 26 28  1  0  0  0  0
 27 29  1  0  0  0  0
 28 30  2  0  0  0  0
 29 31  1  0  0  0  0
 29 32  2  0  0  0  0
 31 33  1  0  0  0  0
  7 10  1  0  0  0  0
 11 12  2  0  0  0  0
 17 18  1  0  0  0  0
 30 32  1  0  0  0  0
M  END
>  <S/N>
465

>  <Compound ID>
C_482

>  <PubChem CID>
155532040

>  <Isomeric SMILES>
COC1=CC=CC(=C1)NC(=S)NNC(=O)C2=CC=C(C=C2)C3=NN=C(O3)C4=CC=CC=C4Cl

>  <IC50 (�M)>
0.4

>  <pIC50>
6.4

$$$$
C_483
Actelion Java MolfileCreator 1.0

 64 73  0  0  0  0  0  0  0  0999 V2000
    3.4641    2.5000   -0.0000 Br  0  0  0  0  0  0  0  0  0  0  0  0
    3.4641    1.5000   -0.0000 C   0  0  0  0  0  0  0  0  0  0  0  0
    2.5981    1.0000   -0.0000 C   0  0  0  0  0  0  0  0  0  0  0  0
    4.3301    1.0000   -0.0000 C   0  0  0  0  0  0  0  0  0  0  0  0
    2.5981   -0.0000   -0.0000 C   0  0  0  0  0  0  0  0  0  0  0  0
    4.3301   -0.0000   -0.0000 C   0  0  0  0  0  0  0  0  0  0  0  0
    3.4641   -0.5000   -0.0000 C   0  0  0  0  0  0  0  0  0  0  0  0
    1.7321   -0.5000   -0.0000 C   0  0  0  0  0  0  0  0  0  0  0  0
    1.7321   -1.5000   -0.0000 N   0  0  0  0  0  0  0  0  0  0  0  0
    0.8660   -0.0000   -0.0000 N   0  0  0  0  0  0  0  0  0  0  0  0
    0.9230   -2.0878   -0.0000 N   0  0  0  0  0  0  0  0  0  0  0  0
    2.5411   -2.0878   -0.0000 C   0  0  0  0  0  0  0  0  0  0  0  0
    0.0000   -0.5000   -0.0000 C   0  0  0  0  0  0  0  0  0  0  0  0
    1.2321   -3.0388   -0.0000 C   0  0  0  0  0  0  0  0  0  0  0  0
    3.4921   -1.7788   -0.0000 S   0  0  0  0  0  0  0  0  0  0  0  0
    2.2321   -3.0388   -0.0000 O   0  0  0  0  0  0  0  0  0  0  0  0
   -0.8660    0.0000   -0.0000 C   0  0  0  0  0  0  0  0  0  0  0  0
   -0.0000   -1.5000   -0.0000 C   0  0  0  0  0  0  0  0  0  0  0  0
    0.6443   -3.8479   -0.0000 C   0  0  0  0  0  0  0  0  0  0  0  0
   -1.7321   -0.5000   -0.0000 C   0  0  0  0  0  0  0  0  0  0  0  0
   -0.8660   -2.0000   -0.0000 C   0  0  0  0  0  0  0  0  0  0  0  0
   -0.3503   -3.7433   -0.0000 C   0  0  0  0  0  0  0  0  0  0  0  0
    1.0510   -4.7614   -0.0000 C   0  0  0  0  0  0  0  0  0  0  0  0
   -1.7321   -1.5000   -0.0000 C   0  0  0  0  0  0  0  0  0  0  0  0
   -0.7570   -2.8298   -0.0000 O   0  0  0  0  0  0  0  0  0  0  0  0
   -0.9380   -4.5523   -0.0000 O   0  0  0  0  0  0  0  0  0  0  0  0
    0.4632   -5.5704   -0.0000 C   0  0  0  0  0  0  0  0  0  0  0  0
   -2.5981   -2.0000   -0.0000 C   0  0  0  0  0  0  0  0  0  0  0  0
   -0.5313   -5.4659   -0.0000 C   0  0  0  0  0  0  0  0  0  0  0  0
    0.8700   -6.4840   -0.0000 C   0  0  0  0  0  0  0  0  0  0  0  0
   -3.4641   -1.5000   -0.0000 C   0  0  0  0  0  0  0  0  0  0  0  0
   -2.5981   -3.0000   -0.0000 C   0  0  0  0  0  0  0  0  0  0  0  0
   -1.1191   -6.2749   -0.0000 C   0  0  0  0  0  0  0  0  0  0  0  0
    0.2822   -7.2930   -0.0000 C   0  0  0  0  0  0  0  0  0  0  0  0
   -4.3301   -2.0000   -0.0000 C   0  0  0  0  0  0  0  0  0  0  0  0
   -3.4641   -3.5000   -0.0000 C   0  0  0  0  0  0  0  0  0  0  0  0
   -0.7124   -7.1885   -0.0000 C   0  0  0  0  0  0  0  0  0  0  0  0
   -4.3301   -3.0000   -0.0000 C   0  0  0  0  0  0  0  0  0  0  0  0
   -5.1962   -3.5000   -0.0000 N   0  0  0  0  0  0  0  0  0  0  0  0
   -6.0622   -3.0000   -0.0000 C   0  0  0  0  0  0  0  0  0  0  0  0
   -6.9282   -3.5000   -0.0000 N   0  0  0  0  0  0  0  0  0  0  0  0
   -6.0622   -2.0000   -0.0000 C   0  0  0  0  0  0  0  0  0  0  0  0
   -7.8417   -3.0933   -0.0000 N   0  0  0  0  0  0  0  0  0  0  0  0
   -7.0327   -4.4945   -0.0000 C   0  0  0  0  0  0  0  0  0  0  0  0
   -6.9282   -1.5000   -0.0000 C   0  0  0  0  0  0  0  0  0  0  0  0
   -5.1962   -1.5000   -0.0000 C   0  0  0  0  0  0  0  0  0  0  0  0
   -8.5109   -3.8364   -0.0000 C   0  0  0  0  0  0  0  0  0  0  0  0
   -6.2896   -5.1637   -0.0000 S   0  0  0  0  0  0  0  0  0  0  0  0
   -8.0109   -4.7024   -0.0000 O   0  0  0  0  0  0  0  0  0  0  0  0
   -6.9282   -0.5000   -0.0000 C   0  0  0  0  0  0  0  0  0  0  0  0
   -5.1962   -0.5000   -0.0000 C   0  0  0  0  0  0  0  0  0  0  0  0
   -9.5054   -3.7319   -0.0000 C   0  0  0  0  0  0  0  0  0  0  0  0
   -7.7942    0.0000   -0.0000 Br  0  0  0  0  0  0  0  0  0  0  0  0
   -6.0622    0.0000   -0.0000 C   0  0  0  0  0  0  0  0  0  0  0  0
   -9.9121   -2.8183   -0.0000 C   0  0  0  0  0  0  0  0  0  0  0  0
  -10.0932   -4.5409   -0.0000 C   0  0  0  0  0  0  0  0  0  0  0  0
  -10.9067   -2.7138   -0.0000 C   0  0  0  0  0  0  0  0  0  0  0  0
   -9.3244   -2.0093   -0.0000 C   0  0  0  0  0  0  0  0  0  0  0  0
  -11.0877   -4.4364   -0.0000 C   0  0  0  0  0  0  0  0  0  0  0  0
  -11.4944   -3.5228   -0.0000 O   0  0  0  0  0  0  0  0  0  0  0  0
  -11.3134   -1.8003   -0.0000 C   0  0  0  0  0  0  0  0  0  0  0  0
   -9.7311   -1.0958   -0.0000 C   0  0  0  0  0  0  0  0  0  0  0  0
  -11.6755   -5.2454   -0.0000 O   0  0  0  0  0  0  0  0  0  0  0  0
  -10.7256   -0.9912   -0.0000 C   0  0  0  0  0  0  0  0  0  0  0  0
  1  2  1  0  0  0  0
  2  3  2  0  0  0  0
  2  4  1  0  0  0  0
  3  5  1  0  0  0  0
  4  6  2  0  0  0  0
  5  7  2  0  0  0  0
  5  8  1  0  0  0  0
  8  9  1  0  0  0  0
  8 10  1  0  0  0  0
  9 11  1  0  0  0  0
  9 12  1  0  0  0  0
 10 13  1  0  0  0  0
 11 14  2  0  0  0  0
 12 15  2  0  0  0  0
 12 16  1  0  0  0  0
 13 17  2  0  0  0  0
 13 18  1  0  0  0  0
 14 19  1  0  0  0  0
 17 20  1  0  0  0  0
 18 21  2  0  0  0  0
 19 22  1  0  0  0  0
 19 23  2  0  0  0  0
 20 24  2  0  0  0  0
 22 25  2  0  0  0  0
 22 26  1  0  0  0  0
 23 27  1  0  0  0  0
 24 28  1  0  0  0  0
 26 29  1  0  0  0  0
 27 30  2  0  0  0  0
 28 31  2  0  0  0  0
 28 32  1  0  0  0  0
 29 33  2  0  0  0  0
 30 34  1  0  0  0  0
 31 35  1  0  0  0  0
 32 36  2  0  0  0  0
 33 37  1  0  0  0  0
 35 38  2  0  0  0  0
 38 39  1  0  0  0  0
 39 40  1  0  0  0  0
 40 41  1  0  0  0  0
 40 42  1  0  0  0  0
 41 43  1  0  0  0  0
 41 44  1  0  0  0  0
 42 45  2  0  0  0  0
 42 46  1  0  0  0  0
 43 47  2  0  0  0  0
 44 48  2  0  0  0  0
 44 49  1  0  0  0  0
 45 50  1  0  0  0  0
 46 51  2  0  0  0  0
 47 52  1  0  0  0  0
 50 53  1  0  0  0  0
 50 54  2  0  0  0  0
 52 55  1  0  0  0  0
 52 56  2  0  0  0  0
 55 57  2  0  0  0  0
 55 58  1  0  0  0  0
 56 59  1  0  0  0  0
 57 60  1  0  0  0  0
 57 61  1  0  0  0  0
 58 62  2  0  0  0  0
 59 63  2  0  0  0  0
 61 64  2  0  0  0  0
  6  7  1  0  0  0  0
 14 16  1  0  0  0  0
 21 24  1  0  0  0  0
 27 29  1  0  0  0  0
 34 37  2  0  0  0  0
 36 38  1  0  0  0  0
 47 49  1  0  0  0  0
 51 54  1  0  0  0  0
 59 60  1  0  0  0  0
 62 64  1  0  0  0  0
M  END
>  <S/N>
466

>  <Compound ID>
C_483

>  <PubChem CID>
155532338

>  <Isomeric SMILES>
C1=CC=C2C(=C1)C=C(C(=O)O2)C3=NN(C(=S)O3)C(C4=CC(=CC=C4)Br)NC5=CC=C(C=C5)C6=CC=C(C=C6)NC(C7=CC(=CC=C7)Br)N8C(=S)OC(=N8)C9=CC(=O)OC1=CC=CC=C19

>  <IC50 (�M)>
0.07

>  <pIC50>
7.15

$$$$
C_484
Actelion Java MolfileCreator 1.0

 68 77  0  0  0  0  0  0  0  0999 V2000
    3.7195   -1.3849   -0.0000 S   0  0  0  0  0  0  0  0  0  0  0  0
    3.5116   -0.4067   -0.0000 C   0  0  0  0  0  0  0  0  0  0  0  0
    4.1808    0.3364   -0.0000 O   0  0  0  0  0  0  0  0  0  0  0  0
    2.5981   -0.0000   -0.0000 N   0  0  0  0  0  0  0  0  0  0  0  0
    3.6808    1.2024   -0.0000 C   0  0  0  0  0  0  0  0  0  0  0  0
    2.7026    0.9945   -0.0000 N   0  0  0  0  0  0  0  0  0  0  0  0
    1.7321   -0.5000   -0.0000 C   0  0  0  0  0  0  0  0  0  0  0  0
    4.0875    2.1160   -0.0000 C   0  0  0  0  0  0  0  0  0  0  0  0
    0.8660   -0.0000   -0.0000 N   0  0  0  0  0  0  0  0  0  0  0  0
    1.7321   -1.5000   -0.0000 C   0  0  0  0  0  0  0  0  0  0  0  0
    5.0820    2.2205   -0.0000 C   0  0  0  0  0  0  0  0  0  0  0  0
    3.4997    2.9250   -0.0000 C   0  0  0  0  0  0  0  0  0  0  0  0
    0.0000   -0.5000   -0.0000 C   0  0  0  0  0  0  0  0  0  0  0  0
    0.8660   -2.0000   -0.0000 C   0  0  0  0  0  0  0  0  0  0  0  0
    2.5981   -2.0000   -0.0000 C   0  0  0  0  0  0  0  0  0  0  0  0
    5.6698    1.4115   -0.0000 O   0  0  0  0  0  0  0  0  0  0  0  0
    5.4887    3.1341   -0.0000 O   0  0  0  0  0  0  0  0  0  0  0  0
    3.9064    3.8385   -0.0000 C   0  0  0  0  0  0  0  0  0  0  0  0
   -0.8660    0.0000   -0.0000 C   0  0  0  0  0  0  0  0  0  0  0  0
   -0.0000   -1.5000   -0.0000 C   0  0  0  0  0  0  0  0  0  0  0  0
    0.8660   -3.0000   -0.0000 C   0  0  0  0  0  0  0  0  0  0  0  0
    2.5981   -3.0000   -0.0000 C   0  0  0  0  0  0  0  0  0  0  0  0
    4.9010    3.9431   -0.0000 C   0  0  0  0  0  0  0  0  0  0  0  0
    3.3187    4.6476   -0.0000 C   0  0  0  0  0  0  0  0  0  0  0  0
   -1.7321   -0.5000   -0.0000 C   0  0  0  0  0  0  0  0  0  0  0  0
   -0.8660   -2.0000   -0.0000 C   0  0  0  0  0  0  0  0  0  0  0  0
    1.7321   -3.5000   -0.0000 C   0  0  0  0  0  0  0  0  0  0  0  0
    5.3077    4.8566   -0.0000 C   0  0  0  0  0  0  0  0  0  0  0  0
    3.7254    5.5611   -0.0000 C   0  0  0  0  0  0  0  0  0  0  0  0
   -1.7321   -1.5000   -0.0000 C   0  0  0  0  0  0  0  0  0  0  0  0
    1.7321   -4.5000   -0.0000 N   0  0  0  0  0  0  0  0  0  0  0  0
    4.7199    5.6656   -0.0000 C   0  0  0  0  0  0  0  0  0  0  0  0
   -2.5981   -2.0000   -0.0000 C   0  0  0  0  0  0  0  0  0  0  0  0
    0.8660   -5.0000   -0.0000 C   0  0  0  0  0  0  0  0  0  0  0  0
    2.5981   -5.0000   -0.0000 C   0  0  0  0  0  0  0  0  0  0  0  0
   -3.4641   -1.5000   -0.0000 C   0  0  0  0  0  0  0  0  0  0  0  0
   -2.5981   -3.0000   -0.0000 C   0  0  0  0  0  0  0  0  0  0  0  0
   -4.3301   -2.0000   -0.0000 C   0  0  0  0  0  0  0  0  0  0  0  0
   -3.4641   -3.5000   -0.0000 C   0  0  0  0  0  0  0  0  0  0  0  0
   -4.3301   -3.0000   -0.0000 C   0  0  0  0  0  0  0  0  0  0  0  0
   -5.1962   -3.5000   -0.0000 N   0  0  0  0  0  0  0  0  0  0  0  0
   -6.0622   -3.0000   -0.0000 C   0  0  0  0  0  0  0  0  0  0  0  0
   -6.9282   -3.5000   -0.0000 N   0  0  0  0  0  0  0  0  0  0  0  0
   -6.0622   -2.0000   -0.0000 C   0  0  0  0  0  0  0  0  0  0  0  0
   -7.8417   -3.0933   -0.0000 N   0  0  0  0  0  0  0  0  0  0  0  0
   -7.0327   -4.4945   -0.0000 C   0  0  0  0  0  0  0  0  0  0  0  0
   -6.9282   -1.5000   -0.0000 C   0  0  0  0  0  0  0  0  0  0  0  0
   -5.1962   -1.5000   -0.0000 C   0  0  0  0  0  0  0  0  0  0  0  0
   -8.5109   -3.8364   -0.0000 C   0  0  0  0  0  0  0  0  0  0  0  0
   -6.2896   -5.1637   -0.0000 S   0  0  0  0  0  0  0  0  0  0  0  0
   -8.0109   -4.7024   -0.0000 O   0  0  0  0  0  0  0  0  0  0  0  0
   -6.9282   -0.5000   -0.0000 C   0  0  0  0  0  0  0  0  0  0  0  0
   -5.1962   -0.5000   -0.0000 C   0  0  0  0  0  0  0  0  0  0  0  0
   -9.5054   -3.7319   -0.0000 C   0  0  0  0  0  0  0  0  0  0  0  0
   -6.0622    0.0000   -0.0000 C   0  0  0  0  0  0  0  0  0  0  0  0
   -9.9121   -2.8183   -0.0000 C   0  0  0  0  0  0  0  0  0  0  0  0
  -10.0932   -4.5409   -0.0000 C   0  0  0  0  0  0  0  0  0  0  0  0
   -6.0622    1.0000   -0.0000 N   0  0  0  0  0  0  0  0  0  0  0  0
  -10.9067   -2.7138   -0.0000 C   0  0  0  0  0  0  0  0  0  0  0  0
   -9.3244   -2.0093   -0.0000 C   0  0  0  0  0  0  0  0  0  0  0  0
  -11.0877   -4.4364   -0.0000 C   0  0  0  0  0  0  0  0  0  0  0  0
   -6.9282    1.5000   -0.0000 C   0  0  0  0  0  0  0  0  0  0  0  0
   -5.1962    1.5000   -0.0000 C   0  0  0  0  0  0  0  0  0  0  0  0
  -11.4944   -3.5228   -0.0000 O   0  0  0  0  0  0  0  0  0  0  0  0
  -11.3134   -1.8003   -0.0000 C   0  0  0  0  0  0  0  0  0  0  0  0
   -9.7311   -1.0958   -0.0000 C   0  0  0  0  0  0  0  0  0  0  0  0
  -11.6755   -5.2454   -0.0000 O   0  0  0  0  0  0  0  0  0  0  0  0
  -10.7256   -0.9912   -0.0000 C   0  0  0  0  0  0  0  0  0  0  0  0
  1  2  2  0  0  0  0
  2  3  1  0  0  0  0
  2  4  1  0  0  0  0
  3  5  1  0  0  0  0
  4  6  1  0  0  0  0
  4  7  1  0  0  0  0
  5  8  1  0  0  0  0
  7  9  1  0  0  0  0
  7 10  1  0  0  0  0
  8 11  1  0  0  0  0
  8 12  2  0  0  0  0
  9 13  1  0  0  0  0
 10 14  2  0  0  0  0
 10 15  1  0  0  0  0
 11 16  2  0  0  0  0
 11 17  1  0  0  0  0
 12 18  1  0  0  0  0
 13 19  2  0  0  0  0
 13 20  1  0  0  0  0
 14 21  1  0  0  0  0
 15 22  2  0  0  0  0
 17 23  1  0  0  0  0
 18 24  1  0  0  0  0
 19 25  1  0  0  0  0
 20 26  2  0  0  0  0
 21 27  2  0  0  0  0
 23 28  1  0  0  0  0
 24 29  2  0  0  0  0
 25 30  2  0  0  0  0
 27 31  1  0  0  0  0
 28 32  2  0  0  0  0
 30 33  1  0  0  0  0
 31 34  1  0  0  0  0
 31 35  1  0  0  0  0
 33 36  2  0  0  0  0
 33 37  1  0  0  0  0
 36 38  1  0  0  0  0
 37 39  2  0  0  0  0
 38 40  2  0  0  0  0
 40 41  1  0  0  0  0
 41 42  1  0  0  0  0
 42 43  1  0  0  0  0
 42 44  1  0  0  0  0
 43 45  1  0  0  0  0
 43 46  1  0  0  0  0
 44 47  2  0  0  0  0
 44 48  1  0  0  0  0
 45 49  2  0  0  0  0
 46 50  2  0  0  0  0
 46 51  1  0  0  0  0
 47 52  1  0  0  0  0
 48 53  2  0  0  0  0
 49 54  1  0  0  0  0
 52 55  2  0  0  0  0
 54 56  1  0  0  0  0
 54 57  2  0  0  0  0
 55 58  1  0  0  0  0
 56 59  2  0  0  0  0
 56 60  1  0  0  0  0
 57 61  1  0  0  0  0
 58 62  1  0  0  0  0
 58 63  1  0  0  0  0
 59 64  1  0  0  0  0
 59 65  1  0  0  0  0
 60 66  2  0  0  0  0
 61 67  2  0  0  0  0
 65 68  2  0  0  0  0
  5  6  2  0  0  0  0
 18 23  2  0  0  0  0
 22 27  1  0  0  0  0
 26 30  1  0  0  0  0
 29 32  1  0  0  0  0
 39 40  1  0  0  0  0
 49 51  1  0  0  0  0
 53 55  1  0  0  0  0
 61 64  1  0  0  0  0
 66 68  1  0  0  0  0
M  END
>  <S/N>
467

>  <Compound ID>
C_484

>  <PubChem CID>
155532615

>  <Isomeric SMILES>
CN(C)C1=CC=C(C=C1)C(NC2=CC=C(C=C2)C3=CC=C(C=C3)NC(C4=CC=C(C=C4)N(C)C)N5C(=S)OC(=N5)C6=CC(=O)OC7=CC=CC=C76)N8C(=S)OC(=N8)C9=CC1=CC=CC=C1OC9=O

>  <IC50 (�M)>
0.07

>  <pIC50>
7.15

$$$$
C_485
Actelion Java MolfileCreator 1.0

 56 62  0  0  0  0  0  0  0  0999 V2000
   10.3923   -0.7500   -0.0000 Cl  0  0  0  0  0  0  0  0  0  0  0  0
    9.0933   -0.0000   -0.0000 C   0  0  0  0  0  0  0  0  0  0  0  0
    9.0933    1.5000   -0.0000 C   0  0  0  0  0  0  0  0  0  0  0  0
    7.7942   -0.7500   -0.0000 C   0  0  0  0  0  0  0  0  0  0  0  0
    7.7942    2.2500   -0.0000 C   0  0  0  0  0  0  0  0  0  0  0  0
    6.4952   -0.0000   -0.0000 C   0  0  0  0  0  0  0  0  0  0  0  0
    7.7942    3.7500   -0.0000 Cl  0  0  0  0  0  0  0  0  0  0  0  0
    6.4952    1.5000   -0.0000 C   0  0  0  0  0  0  0  0  0  0  0  0
    5.1962   -0.7500   -0.0000 S   0  0  0  0  0  0  0  0  0  0  0  0
    4.4462   -2.0490   -0.0000 O   0  0  0  0  0  0  0  0  0  0  0  0
    5.9462   -2.0490   -0.0000 O   0  0  0  0  0  0  0  0  0  0  0  0
    3.8971   -0.0000   -0.0000 N   0  0  0  0  0  0  0  0  0  0  0  0
    2.5981   -0.7500   -0.0000 N   0  0  0  0  0  0  0  0  0  0  0  0
    1.2990   -0.0000   -0.0000 C   0  0  0  0  0  0  0  0  0  0  0  0
    1.2990    1.5000   -0.0000 O   0  0  0  0  0  0  0  0  0  0  0  0
    0.0000   -0.7500   -0.0000 C   0  0  0  0  0  0  0  0  0  0  0  0
   -0.0000   -2.2500   -0.0000 C   0  0  0  0  0  0  0  0  0  0  0  0
   -1.2990    0.0000   -0.0000 C   0  0  0  0  0  0  0  0  0  0  0  0
   -1.2990   -3.0000   -0.0000 C   0  0  0  0  0  0  0  0  0  0  0  0
   -2.5981   -0.7500   -0.0000 C   0  0  0  0  0  0  0  0  0  0  0  0
   -2.5981   -2.2500   -0.0000 C   0  0  0  0  0  0  0  0  0  0  0  0
   -1.6109   -4.4672   -0.0000 C   0  0  0  0  0  0  0  0  0  0  0  0
   -3.7128   -3.2537   -0.0000 N   0  0  0  0  0  0  0  0  0  0  0  0
   -3.1027   -4.6240   -0.0000 C   0  0  0  0  0  0  0  0  0  0  0  0
   -0.6072   -5.5819   -0.0000 C   0  0  0  0  0  0  0  0  0  0  0  0
   -1.0707   -7.0085   -0.0000 C   0  0  0  0  0  0  0  0  0  0  0  0
    0.8600   -5.2701   -0.0000 C   0  0  0  0  0  0  0  0  0  0  0  0
   -2.5380   -7.3204   -0.0000 C   0  0  0  0  0  0  0  0  0  0  0  0
   -0.0670   -8.1233   -0.0000 C   0  0  0  0  0  0  0  0  0  0  0  0
    1.9747   -6.2738   -0.0000 C   0  0  0  0  0  0  0  0  0  0  0  0
    1.4701   -3.8998   -0.0000 C   0  0  0  0  0  0  0  0  0  0  0  0
   -3.0015   -8.7470   -0.0000 C   0  0  0  0  0  0  0  0  0  0  0  0
   -0.5306   -9.5498   -0.0000 C   0  0  0  0  0  0  0  0  0  0  0  0
    3.2738   -5.5238   -0.0000 C   0  0  0  0  0  0  0  0  0  0  0  0
    1.9747   -7.7738   -0.0000 C   0  0  0  0  0  0  0  0  0  0  0  0
    2.9619   -4.0566   -0.0000 N   0  0  0  0  0  0  0  0  0  0  0  0
   -1.9978   -9.8617   -0.0000 C   0  0  0  0  0  0  0  0  0  0  0  0
    4.5728   -6.2738   -0.0000 C   0  0  0  0  0  0  0  0  0  0  0  0
    3.2738   -8.5238   -0.0000 C   0  0  0  0  0  0  0  0  0  0  0  0
   -2.4613  -11.2883   -0.0000 C   0  0  0  0  0  0  0  0  0  0  0  0
    4.5728   -7.7738   -0.0000 C   0  0  0  0  0  0  0  0  0  0  0  0
    3.2738  -10.0238   -0.0000 C   0  0  0  0  0  0  0  0  0  0  0  0
    4.5728  -10.7738   -0.0000 O   0  0  0  0  0  0  0  0  0  0  0  0
    1.9747  -10.7738   -0.0000 N   0  0  0  0  0  0  0  0  0  0  0  0
    1.9747  -12.2738   -0.0000 N   0  0  0  0  0  0  0  0  0  0  0  0
    0.6757  -13.0238   -0.0000 S   0  0  0  0  0  0  0  0  0  0  0  0
   -0.0743  -11.7248   -0.0000 O   0  0  0  0  0  0  0  0  0  0  0  0
   -0.8243  -13.0238   -0.0000 O   0  0  0  0  0  0  0  0  0  0  0  0
    0.6757  -14.5238   -0.0000 C   0  0  0  0  0  0  0  0  0  0  0  0
   -0.6233  -15.2738   -0.0000 C   0  0  0  0  0  0  0  0  0  0  0  0
    1.9747  -15.2738   -0.0000 C   0  0  0  0  0  0  0  0  0  0  0  0
   -0.6233  -16.7738   -0.0000 C   0  0  0  0  0  0  0  0  0  0  0  0
    1.9747  -16.7738   -0.0000 C   0  0  0  0  0  0  0  0  0  0  0  0
   -1.9224  -17.5238   -0.0000 Cl  0  0  0  0  0  0  0  0  0  0  0  0
    0.6757  -17.5238   -0.0000 C   0  0  0  0  0  0  0  0  0  0  0  0
    3.2738  -17.5238   -0.0000 Cl  0  0  0  0  0  0  0  0  0  0  0  0
  1  2  1  0  0  0  0
  2  3  2  0  0  0  0
  2  4  1  0  0  0  0
  3  5  1  0  0  0  0
  4  6  2  0  0  0  0
  5  7  1  0  0  0  0
  5  8  2  0  0  0  0
  6  9  1  0  0  0  0
  9 10  2  0  0  0  0
  9 11  2  0  0  0  0
  9 12  1  0  0  0  0
 12 13  1  0  0  0  0
 13 14  1  0  0  0  0
 14 15  2  0  0  0  0
 14 16  1  0  0  0  0
 16 17  2  0  0  0  0
 16 18  1  0  0  0  0
 17 19  1  0  0  0  0
 18 20  2  0  0  0  0
 19 21  2  0  0  0  0
 19 22  1  0  0  0  0
 21 23  1  0  0  0  0
 22 24  2  0  0  0  0
 22 25  1  0  0  0  0
 25 26  1  0  0  0  0
 25 27  1  0  0  0  0
 26 28  2  0  0  0  0
 26 29  1  0  0  0  0
 27 30  1  0  0  0  0
 27 31  2  0  0  0  0
 28 32  1  0  0  0  0
 29 33  2  0  0  0  0
 30 34  2  0  0  0  0
 30 35  1  0  0  0  0
 31 36  1  0  0  0  0
 32 37  2  0  0  0  0
 34 38  1  0  0  0  0
 35 39  2  0  0  0  0
 37 40  1  0  0  0  0
 38 41  2  0  0  0  0
 39 42  1  0  0  0  0
 42 43  2  0  0  0  0
 42 44  1  0  0  0  0
 44 45  1  0  0  0  0
 45 46  1  0  0  0  0
 46 47  2  0  0  0  0
 46 48  2  0  0  0  0
 46 49  1  0  0  0  0
 49 50  2  0  0  0  0
 49 51  1  0  0  0  0
 50 52  1  0  0  0  0
 51 53  2  0  0  0  0
 52 54  1  0  0  0  0
 52 55  2  0  0  0  0
 53 56  1  0  0  0  0
  6  8  1  0  0  0  0
 20 21  1  0  0  0  0
 23 24  1  0  0  0  0
 33 37  1  0  0  0  0
 34 36  1  0  0  0  0
 39 41  1  0  0  0  0
 53 55  1  0  0  0  0
M  END
>  <S/N>
468

>  <Compound ID>
C_485

>  <PubChem CID>
155532972

>  <Isomeric SMILES>
CC1=CC=C(C=C1)C(C2=CNC3=C2C=C(C=C3)C(=O)NNS(=O)(=O)C4=CC(=CC(=C4)Cl)Cl)C5=CNC6=C5C=C(C=C6)C(=O)NNS(=O)(=O)C7=CC(=CC(=C7)Cl)Cl

>  <IC50 (�M)>
0.1

>  <pIC50>
7

$$$$
C_486
Actelion Java MolfileCreator 1.0

 42 49  0  0  0  0  0  0  0  0999 V2000
    0.8073   -3.9319   -0.0000 Br  0  0  0  0  0  0  0  0  0  0  0  0
    1.4765   -3.1887   -0.0000 C   0  0  0  0  0  0  0  0  0  0  0  0
    1.1674   -2.2377   -0.0000 C   0  0  0  0  0  0  0  0  0  0  0  0
    2.4546   -3.3966   -0.0000 C   0  0  0  0  0  0  0  0  0  0  0  0
    1.8366   -1.4945   -0.0000 C   0  0  0  0  0  0  0  0  0  0  0  0
    3.1237   -2.6535   -0.0000 C   0  0  0  0  0  0  0  0  0  0  0  0
    2.8147   -1.7024   -0.0000 C   0  0  0  0  0  0  0  0  0  0  0  0
    1.7321   -0.5000   -0.0000 C   0  0  0  0  0  0  0  0  0  0  0  0
    3.3147   -0.8364   -0.0000 N   0  0  0  0  0  0  0  0  0  0  0  0
    2.6456   -0.0933   -0.0000 C   0  0  0  0  0  0  0  0  0  0  0  0
    0.8660   -0.0000   -0.0000 C   0  0  0  0  0  0  0  0  0  0  0  0
    0.8660    1.0000   -0.0000 C   0  0  0  0  0  0  0  0  0  0  0  0
    0.0000   -0.5000   -0.0000 C   0  0  0  0  0  0  0  0  0  0  0  0
    1.7321    1.5000   -0.0000 C   0  0  0  0  0  0  0  0  0  0  0  0
    0.0000    1.5000   -0.0000 C   0  0  0  0  0  0  0  0  0  0  0  0
   -0.9135   -0.0933   -0.0000 C   0  0  0  0  0  0  0  0  0  0  0  0
   -0.1045   -1.4945   -0.0000 C   0  0  0  0  0  0  0  0  0  0  0  0
    1.7321    2.5000   -0.0000 C   0  0  0  0  0  0  0  0  0  0  0  0
    0.0000    2.5000   -0.0000 C   0  0  0  0  0  0  0  0  0  0  0  0
   -1.5827   -0.8364   -0.0000 C   0  0  0  0  0  0  0  0  0  0  0  0
   -1.2226    0.8578   -0.0000 C   0  0  0  0  0  0  0  0  0  0  0  0
   -1.0827   -1.7024   -0.0000 N   0  0  0  0  0  0  0  0  0  0  0  0
    0.8660    3.0000   -0.0000 C   0  0  0  0  0  0  0  0  0  0  0  0
   -2.5608   -0.6285   -0.0000 C   0  0  0  0  0  0  0  0  0  0  0  0
   -2.2007    1.0657   -0.0000 C   0  0  0  0  0  0  0  0  0  0  0  0
    0.8660    4.0000   -0.0000 C   0  0  0  0  0  0  0  0  0  0  0  0
   -2.8698    0.3226   -0.0000 C   0  0  0  0  0  0  0  0  0  0  0  0
   -2.5097    2.0168   -0.0000 Br  0  0  0  0  0  0  0  0  0  0  0  0
    1.6750    4.5878   -0.0000 O   0  0  0  0  0  0  0  0  0  0  0  0
    0.0570    4.5878   -0.0000 N   0  0  0  0  0  0  0  0  0  0  0  0
    1.3660    5.5388   -0.0000 C   0  0  0  0  0  0  0  0  0  0  0  0
    0.3660    5.5388   -0.0000 N   0  0  0  0  0  0  0  0  0  0  0  0
    1.9538    6.3479   -0.0000 C   0  0  0  0  0  0  0  0  0  0  0  0
    2.9538    6.3479   -0.0000 C   0  0  0  0  0  0  0  0  0  0  0  0
    1.6448    7.2989   -0.0000 C   0  0  0  0  0  0  0  0  0  0  0  0
    3.2628    7.2989   -0.0000 C   0  0  0  0  0  0  0  0  0  0  0  0
    3.6229    5.6047   -0.0000 C   0  0  0  0  0  0  0  0  0  0  0  0
    2.4538    7.8867   -0.0000 N   0  0  0  0  0  0  0  0  0  0  0  0
    4.2410    7.5068   -0.0000 C   0  0  0  0  0  0  0  0  0  0  0  0
    4.6011    5.8126   -0.0000 C   0  0  0  0  0  0  0  0  0  0  0  0
    2.4538    8.8867   -0.0000 C   0  0  0  0  0  0  0  0  0  0  0  0
    4.9101    6.7637   -0.0000 C   0  0  0  0  0  0  0  0  0  0  0  0
  1  2  1  0  0  0  0
  2  3  2  0  0  0  0
  2  4  1  0  0  0  0
  3  5  1  0  0  0  0
  4  6  2  0  0  0  0
  5  7  2  0  0  0  0
  5  8  1  0  0  0  0
  7  9  1  0  0  0  0
  8 10  2  0  0  0  0
  8 11  1  0  0  0  0
 11 12  1  0  0  0  0
 11 13  1  0  0  0  0
 12 14  2  0  0  0  0
 12 15  1  0  0  0  0
 13 16  1  0  0  0  0
 13 17  2  0  0  0  0
 14 18  1  0  0  0  0
 15 19  2  0  0  0  0
 16 20  2  0  0  0  0
 16 21  1  0  0  0  0
 17 22  1  0  0  0  0
 18 23  2  0  0  0  0
 20 24  1  0  0  0  0
 21 25  2  0  0  0  0
 23 26  1  0  0  0  0
 24 27  2  0  0  0  0
 25 28  1  0  0  0  0
 26 29  1  0  0  0  0
 26 30  2  0  0  0  0
 29 31  1  0  0  0  0
 30 32  1  0  0  0  0
 31 33  1  0  0  0  0
 33 34  1  0  0  0  0
 33 35  2  0  0  0  0
 34 36  2  0  0  0  0
 34 37  1  0  0  0  0
 35 38  1  0  0  0  0
 36 39  1  0  0  0  0
 37 40  2  0  0  0  0
 38 41  1  0  0  0  0
 39 42  2  0  0  0  0
  6  7  1  0  0  0  0
  9 10  1  0  0  0  0
 19 23  1  0  0  0  0
 20 22  1  0  0  0  0
 25 27  1  0  0  0  0
 31 32  2  0  0  0  0
 36 38  1  0  0  0  0
 40 42  1  0  0  0  0
M  END
>  <S/N>
469

>  <Compound ID>
C_486

>  <PubChem CID>
155532978

>  <Isomeric SMILES>
CN1C=C(C2=CC=CC=C21)C3=NN=C(O3)C4=CC=C(C=C4)C(C5=CNC6=C5C=C(C=C6)Br)C7=CNC8=C7C=C(C=C8)Br

>  <IC50 (�M)>
20

>  <pIC50>
4.7

$$$$
C_487
Actelion Java MolfileCreator 1.0

 58 66  0  0  0  0  0  0  0  0999 V2000
    3.7195   -1.3849   -0.0000 S   0  0  0  0  0  0  0  0  0  0  0  0
    3.5116   -0.4067   -0.0000 C   0  0  0  0  0  0  0  0  0  0  0  0
    4.1808    0.3364   -0.0000 O   0  0  0  0  0  0  0  0  0  0  0  0
    2.5981   -0.0000   -0.0000 N   0  0  0  0  0  0  0  0  0  0  0  0
    3.6808    1.2024   -0.0000 C   0  0  0  0  0  0  0  0  0  0  0  0
    2.7026    0.9945   -0.0000 N   0  0  0  0  0  0  0  0  0  0  0  0
    1.7321   -0.5000   -0.0000 C   0  0  0  0  0  0  0  0  0  0  0  0
    4.0875    2.1160   -0.0000 C   0  0  0  0  0  0  0  0  0  0  0  0
    0.8660   -0.0000   -0.0000 N   0  0  0  0  0  0  0  0  0  0  0  0
    1.7321   -1.5000   -0.0000 C   0  0  0  0  0  0  0  0  0  0  0  0
    5.0820    2.2205   -0.0000 C   0  0  0  0  0  0  0  0  0  0  0  0
    3.4997    2.9250   -0.0000 C   0  0  0  0  0  0  0  0  0  0  0  0
    0.0000   -0.5000   -0.0000 C   0  0  0  0  0  0  0  0  0  0  0  0
    0.8660   -2.0000   -0.0000 C   0  0  0  0  0  0  0  0  0  0  0  0
    2.5981   -2.0000   -0.0000 C   0  0  0  0  0  0  0  0  0  0  0  0
    5.6698    1.4115   -0.0000 O   0  0  0  0  0  0  0  0  0  0  0  0
    5.4887    3.1341   -0.0000 O   0  0  0  0  0  0  0  0  0  0  0  0
    3.9064    3.8385   -0.0000 C   0  0  0  0  0  0  0  0  0  0  0  0
   -0.8660    0.0000   -0.0000 C   0  0  0  0  0  0  0  0  0  0  0  0
   -0.0000   -1.5000   -0.0000 C   0  0  0  0  0  0  0  0  0  0  0  0
    0.8660   -3.0000   -0.0000 C   0  0  0  0  0  0  0  0  0  0  0  0
    2.5981   -3.0000   -0.0000 C   0  0  0  0  0  0  0  0  0  0  0  0
    4.9010    3.9431   -0.0000 C   0  0  0  0  0  0  0  0  0  0  0  0
    3.3187    4.6476   -0.0000 C   0  0  0  0  0  0  0  0  0  0  0  0
   -1.7321   -0.5000   -0.0000 C   0  0  0  0  0  0  0  0  0  0  0  0
   -0.8660   -2.0000   -0.0000 C   0  0  0  0  0  0  0  0  0  0  0  0
    1.7321   -3.5000   -0.0000 C   0  0  0  0  0  0  0  0  0  0  0  0
    5.3077    4.8566   -0.0000 C   0  0  0  0  0  0  0  0  0  0  0  0
    3.7254    5.5611   -0.0000 C   0  0  0  0  0  0  0  0  0  0  0  0
   -1.7321   -1.5000   -0.0000 C   0  0  0  0  0  0  0  0  0  0  0  0
    1.7321   -4.5000   -0.0000 C   0  0  0  0  0  0  0  0  0  0  0  0
    4.7199    5.6656   -0.0000 C   0  0  0  0  0  0  0  0  0  0  0  0
   -2.5981   -2.0000   -0.0000 N   0  0  0  0  0  0  0  0  0  0  0  0
   -3.4641   -1.5000   -0.0000 C   0  0  0  0  0  0  0  0  0  0  0  0
   -3.4641   -0.5000   -0.0000 N   0  0  0  0  0  0  0  0  0  0  0  0
   -4.3301   -2.0000   -0.0000 C   0  0  0  0  0  0  0  0  0  0  0  0
   -2.6551    0.0878   -0.0000 N   0  0  0  0  0  0  0  0  0  0  0  0
   -4.2731    0.0878   -0.0000 C   0  0  0  0  0  0  0  0  0  0  0  0
   -5.1962   -1.5000   -0.0000 C   0  0  0  0  0  0  0  0  0  0  0  0
   -4.3301   -3.0000   -0.0000 C   0  0  0  0  0  0  0  0  0  0  0  0
   -2.9641    1.0388   -0.0000 C   0  0  0  0  0  0  0  0  0  0  0  0
   -5.2242   -0.2212   -0.0000 S   0  0  0  0  0  0  0  0  0  0  0  0
   -3.9641    1.0388   -0.0000 O   0  0  0  0  0  0  0  0  0  0  0  0
   -6.0622   -2.0000   -0.0000 C   0  0  0  0  0  0  0  0  0  0  0  0
   -5.1962   -3.5000   -0.0000 C   0  0  0  0  0  0  0  0  0  0  0  0
   -2.3763    1.8479   -0.0000 C   0  0  0  0  0  0  0  0  0  0  0  0
   -6.0622   -3.0000   -0.0000 C   0  0  0  0  0  0  0  0  0  0  0  0
   -1.3818    1.7433   -0.0000 C   0  0  0  0  0  0  0  0  0  0  0  0
   -2.7831    2.7614   -0.0000 C   0  0  0  0  0  0  0  0  0  0  0  0
   -6.9282   -3.5000   -0.0000 C   0  0  0  0  0  0  0  0  0  0  0  0
   -0.7940    2.5523   -0.0000 C   0  0  0  0  0  0  0  0  0  0  0  0
   -0.9751    0.8298   -0.0000 C   0  0  0  0  0  0  0  0  0  0  0  0
   -2.1953    3.5704   -0.0000 C   0  0  0  0  0  0  0  0  0  0  0  0
   -1.2007    3.4659   -0.0000 O   0  0  0  0  0  0  0  0  0  0  0  0
    0.2005    2.4478   -0.0000 C   0  0  0  0  0  0  0  0  0  0  0  0
    0.0195    0.7253   -0.0000 C   0  0  0  0  0  0  0  0  0  0  0  0
   -2.6020    4.4840   -0.0000 O   0  0  0  0  0  0  0  0  0  0  0  0
    0.6072    1.5343   -0.0000 C   0  0  0  0  0  0  0  0  0  0  0  0
  1  2  2  0  0  0  0
  2  3  1  0  0  0  0
  2  4  1  0  0  0  0
  3  5  1  0  0  0  0
  4  6  1  0  0  0  0
  4  7  1  0  0  0  0
  5  8  1  0  0  0  0
  7  9  1  0  0  0  0
  7 10  1  0  0  0  0
  8 11  1  0  0  0  0
  8 12  2  0  0  0  0
  9 13  1  0  0  0  0
 10 14  2  0  0  0  0
 10 15  1  0  0  0  0
 11 16  2  0  0  0  0
 11 17  1  0  0  0  0
 12 18  1  0  0  0  0
 13 19  2  0  0  0  0
 13 20  1  0  0  0  0
 14 21  1  0  0  0  0
 15 22  2  0  0  0  0
 17 23  1  0  0  0  0
 18 24  1  0  0  0  0
 19 25  1  0  0  0  0
 20 26  2  0  0  0  0
 21 27  2  0  0  0  0
 23 28  1  0  0  0  0
 24 29  2  0  0  0  0
 25 30  2  0  0  0  0
 27 31  1  0  0  0  0
 28 32  2  0  0  0  0
 30 33  1  0  0  0  0
 33 34  1  0  0  0  0
 34 35  1  0  0  0  0
 34 36  1  0  0  0  0
 35 37  1  0  0  0  0
 35 38  1  0  0  0  0
 36 39  2  0  0  0  0
 36 40  1  0  0  0  0
 37 41  2  0  0  0  0
 38 42  2  0  0  0  0
 38 43  1  0  0  0  0
 39 44  1  0  0  0  0
 40 45  2  0  0  0  0
 41 46  1  0  0  0  0
 44 47  2  0  0  0  0
 46 48  1  0  0  0  0
 46 49  2  0  0  0  0
 47 50  1  0  0  0  0
 48 51  2  0  0  0  0
 48 52  1  0  0  0  0
 49 53  1  0  0  0  0
 51 54  1  0  0  0  0
 51 55  1  0  0  0  0
 52 56  2  0  0  0  0
 53 57  2  0  0  0  0
 55 58  2  0  0  0  0
  5  6  2  0  0  0  0
 18 23  2  0  0  0  0
 22 27  1  0  0  0  0
 26 30  1  0  0  0  0
 29 32  1  0  0  0  0
 41 43  1  0  0  0  0
 45 47  1  0  0  0  0
 53 54  1  0  0  0  0
 56 58  1  0  0  0  0
M  END
>  <S/N>
470

>  <Compound ID>
C_487

>  <PubChem CID>
155533171

>  <Isomeric SMILES>
CC1=CC=C(C=C1)C(NC2=CC=C(C=C2)NC(C3=CC=C(C=C3)C)N4C(=S)OC(=N4)C5=CC(=O)OC6=CC=CC=C65)N7C(=S)OC(=N7)C8=CC9=CC=CC=C9OC8=O

>  <IC50 (�M)>
0.07

>  <pIC50>
7.15

$$$$
C_488
Actelion Java MolfileCreator 1.0

 69 78  0  0  0  0  0  0  0  0999 V2000
    3.7195   -1.3849   -0.0000 S   0  0  0  0  0  0  0  0  0  0  0  0
    3.5116   -0.4067   -0.0000 C   0  0  0  0  0  0  0  0  0  0  0  0
    4.1808    0.3364   -0.0000 O   0  0  0  0  0  0  0  0  0  0  0  0
    2.5981   -0.0000   -0.0000 N   0  0  0  0  0  0  0  0  0  0  0  0
    3.6808    1.2024   -0.0000 C   0  0  0  0  0  0  0  0  0  0  0  0
    2.7026    0.9945   -0.0000 N   0  0  0  0  0  0  0  0  0  0  0  0
    1.7321   -0.5000   -0.0000 C   0  0  0  0  0  0  0  0  0  0  0  0
    4.0875    2.1160   -0.0000 C   0  0  0  0  0  0  0  0  0  0  0  0
    0.8660   -0.0000   -0.0000 N   0  0  0  0  0  0  0  0  0  0  0  0
    1.7321   -1.5000   -0.0000 C   0  0  0  0  0  0  0  0  0  0  0  0
    5.0820    2.2205   -0.0000 C   0  0  0  0  0  0  0  0  0  0  0  0
    3.4997    2.9250   -0.0000 C   0  0  0  0  0  0  0  0  0  0  0  0
    0.0000   -0.5000   -0.0000 C   0  0  0  0  0  0  0  0  0  0  0  0
    0.8660   -2.0000   -0.0000 C   0  0  0  0  0  0  0  0  0  0  0  0
    2.5981   -2.0000   -0.0000 C   0  0  0  0  0  0  0  0  0  0  0  0
    5.6698    1.4115   -0.0000 O   0  0  0  0  0  0  0  0  0  0  0  0
    5.4887    3.1341   -0.0000 O   0  0  0  0  0  0  0  0  0  0  0  0
    3.9064    3.8385   -0.0000 C   0  0  0  0  0  0  0  0  0  0  0  0
   -0.8660    0.0000   -0.0000 C   0  0  0  0  0  0  0  0  0  0  0  0
   -0.0000   -1.5000   -0.0000 C   0  0  0  0  0  0  0  0  0  0  0  0
    0.8660   -3.0000   -0.0000 C   0  0  0  0  0  0  0  0  0  0  0  0
    2.5981   -3.0000   -0.0000 C   0  0  0  0  0  0  0  0  0  0  0  0
    4.9010    3.9431   -0.0000 C   0  0  0  0  0  0  0  0  0  0  0  0
    3.3187    4.6476   -0.0000 C   0  0  0  0  0  0  0  0  0  0  0  0
   -1.7321   -0.5000   -0.0000 C   0  0  0  0  0  0  0  0  0  0  0  0
   -0.8660   -2.0000   -0.0000 C   0  0  0  0  0  0  0  0  0  0  0  0
    1.7321   -3.5000   -0.0000 C   0  0  0  0  0  0  0  0  0  0  0  0
    5.3077    4.8566   -0.0000 C   0  0  0  0  0  0  0  0  0  0  0  0
    3.7254    5.5611   -0.0000 C   0  0  0  0  0  0  0  0  0  0  0  0
   -1.7321   -1.5000   -0.0000 C   0  0  0  0  0  0  0  0  0  0  0  0
    1.7321   -4.5000   -0.0000 N   0  0  0  0  0  0  0  0  0  0  0  0
    4.7199    5.6656   -0.0000 C   0  0  0  0  0  0  0  0  0  0  0  0
   -2.5981   -2.0000   -0.0000 O   0  0  0  0  0  0  0  0  0  0  0  0
    0.8660   -5.0000   -0.0000 O   0  0  0  0  0  0  0  0  0  0  0  0
    2.5981   -5.0000   -0.0000 O   0  0  0  0  0  0  0  0  0  0  0  0
   -2.5981   -3.0000   -0.0000 C   0  0  0  0  0  0  0  0  0  0  0  0
   -3.4641   -3.5000   -0.0000 C   0  0  0  0  0  0  0  0  0  0  0  0
   -1.7321   -3.5000   -0.0000 C   0  0  0  0  0  0  0  0  0  0  0  0
   -3.4641   -4.5000   -0.0000 C   0  0  0  0  0  0  0  0  0  0  0  0
   -1.7321   -4.5000   -0.0000 C   0  0  0  0  0  0  0  0  0  0  0  0
   -2.5981   -5.0000   -0.0000 C   0  0  0  0  0  0  0  0  0  0  0  0
   -2.5981   -6.0000   -0.0000 N   0  0  0  0  0  0  0  0  0  0  0  0
   -3.4641   -6.5000   -0.0000 C   0  0  0  0  0  0  0  0  0  0  0  0
   -4.3301   -6.0000   -0.0000 N   0  0  0  0  0  0  0  0  0  0  0  0
   -3.4641   -7.5000   -0.0000 C   0  0  0  0  0  0  0  0  0  0  0  0
   -4.4347   -5.0055   -0.0000 N   0  0  0  0  0  0  0  0  0  0  0  0
   -5.2437   -6.4067   -0.0000 C   0  0  0  0  0  0  0  0  0  0  0  0
   -4.3301   -8.0000   -0.0000 C   0  0  0  0  0  0  0  0  0  0  0  0
   -2.5981   -8.0000   -0.0000 C   0  0  0  0  0  0  0  0  0  0  0  0
   -5.4128   -4.7976   -0.0000 C   0  0  0  0  0  0  0  0  0  0  0  0
   -5.4516   -7.3849   -0.0000 S   0  0  0  0  0  0  0  0  0  0  0  0
   -5.9128   -5.6636   -0.0000 O   0  0  0  0  0  0  0  0  0  0  0  0
   -4.3301   -9.0000   -0.0000 C   0  0  0  0  0  0  0  0  0  0  0  0
   -2.5981   -9.0000   -0.0000 C   0  0  0  0  0  0  0  0  0  0  0  0
   -5.8195   -3.8840   -0.0000 C   0  0  0  0  0  0  0  0  0  0  0  0
   -3.4641   -9.5000   -0.0000 C   0  0  0  0  0  0  0  0  0  0  0  0
   -5.2318   -3.0750   -0.0000 C   0  0  0  0  0  0  0  0  0  0  0  0
   -6.8141   -3.7795   -0.0000 C   0  0  0  0  0  0  0  0  0  0  0  0
   -3.4641  -10.5000   -0.0000 N   0  0  0  0  0  0  0  0  0  0  0  0
   -4.2372   -3.1795   -0.0000 O   0  0  0  0  0  0  0  0  0  0  0  0
   -5.6385   -2.1615   -0.0000 O   0  0  0  0  0  0  0  0  0  0  0  0
   -7.2208   -2.8659   -0.0000 C   0  0  0  0  0  0  0  0  0  0  0  0
   -4.3301  -11.0000   -0.0000 O   0  0  0  0  0  0  0  0  0  0  0  0
   -2.5981  -11.0000   -0.0000 O   0  0  0  0  0  0  0  0  0  0  0  0
   -6.6330   -2.0569   -0.0000 C   0  0  0  0  0  0  0  0  0  0  0  0
   -8.2153   -2.7614   -0.0000 C   0  0  0  0  0  0  0  0  0  0  0  0
   -7.0397   -1.1434   -0.0000 C   0  0  0  0  0  0  0  0  0  0  0  0
   -8.6221   -1.8479   -0.0000 C   0  0  0  0  0  0  0  0  0  0  0  0
   -8.0343   -1.0389   -0.0000 C   0  0  0  0  0  0  0  0  0  0  0  0
  1  2  2  0  0  0  0
  2  3  1  0  0  0  0
  2  4  1  0  0  0  0
  3  5  1  0  0  0  0
  4  6  1  0  0  0  0
  4  7  1  0  0  0  0
  5  8  1  0  0  0  0
  7  9  1  0  0  0  0
  7 10  1  0  0  0  0
  8 11  1  0  0  0  0
  8 12  2  0  0  0  0
  9 13  1  0  0  0  0
 10 14  2  0  0  0  0
 10 15  1  0  0  0  0
 11 16  2  0  0  0  0
 11 17  1  0  0  0  0
 12 18  1  0  0  0  0
 13 19  2  0  0  0  0
 13 20  1  0  0  0  0
 14 21  1  0  0  0  0
 15 22  2  0  0  0  0
 17 23  1  0  0  0  0
 18 24  1  0  0  0  0
 19 25  1  0  0  0  0
 20 26  2  0  0  0  0
 21 27  2  0  0  0  0
 23 28  1  0  0  0  0
 24 29  2  0  0  0  0
 25 30  2  0  0  0  0
 27 31  1  0  0  0  0
 28 32  2  0  0  0  0
 30 33  1  0  0  0  0
 31 34  2  0  0  0  0
 31 35  1  0  0  0  0
 33 36  1  0  0  0  0
 36 37  2  0  0  0  0
 36 38  1  0  0  0  0
 37 39  1  0  0  0  0
 38 40  2  0  0  0  0
 39 41  2  0  0  0  0
 41 42  1  0  0  0  0
 42 43  1  0  0  0  0
 43 44  1  0  0  0  0
 43 45  1  0  0  0  0
 44 46  1  0  0  0  0
 44 47  1  0  0  0  0
 45 48  2  0  0  0  0
 45 49  1  0  0  0  0
 46 50  2  0  0  0  0
 47 51  2  0  0  0  0
 47 52  1  0  0  0  0
 48 53  1  0  0  0  0
 49 54  2  0  0  0  0
 50 55  1  0  0  0  0
 53 56  2  0  0  0  0
 55 57  1  0  0  0  0
 55 58  2  0  0  0  0
 56 59  1  0  0  0  0
 57 60  2  0  0  0  0
 57 61  1  0  0  0  0
 58 62  1  0  0  0  0
 59 63  2  0  0  0  0
 59 64  1  0  0  0  0
 61 65  1  0  0  0  0
 62 66  2  0  0  0  0
 65 67  2  0  0  0  0
 66 68  1  0  0  0  0
 67 69  1  0  0  0  0
  5  6  2  0  0  0  0
 18 23  2  0  0  0  0
 22 27  1  0  0  0  0
 26 30  1  0  0  0  0
 29 32  1  0  0  0  0
 40 41  1  0  0  0  0
 50 52  1  0  0  0  0
 54 56  1  0  0  0  0
 62 65  1  0  0  0  0
 68 69  2  0  0  0  0
M  CHG  4  31   1  35  -1  59   1  64  -1
M  END
>  <S/N>
471

>  <Compound ID>
C_488

>  <PubChem CID>
155533188

>  <Isomeric SMILES>
C1=CC=C2C(=C1)C=C(C(=O)O2)C3=NN(C(=S)O3)C(C4=CC=C(C=C4)[N+](=O)[O-])NC5=CC=C(C=C5)OC6=CC=C(C=C6)NC(C7=CC=C(C=C7)[N+](=O)[O-])N8C(=S)OC(=N8)C9=CC1=CC=CC=C1OC9=O

>  <IC50 (�M)>
0.07

>  <pIC50>
7.15

$$$$
C_489
Actelion Java MolfileCreator 1.0

 26 29  0  0  0  0  0  0  0  0999 V2000
    2.7026    0.9945   -0.0000 S   0  0  0  0  0  0  0  0  0  0  0  0
    2.5981   -0.0000   -0.0000 C   0  0  0  0  0  0  0  0  0  0  0  0
    3.6808    1.2024   -0.0000 C   0  0  0  0  0  0  0  0  0  0  0  0
    3.5116   -0.4067   -0.0000 N   0  0  0  0  0  0  0  0  0  0  0  0
    1.7321   -0.5000   -0.0000 N   0  0  0  0  0  0  0  0  0  0  0  0
    4.1808    0.3364   -0.0000 C   0  0  0  0  0  0  0  0  0  0  0  0
    0.8660   -0.0000   -0.0000 N   0  0  0  0  0  0  0  0  0  0  0  0
    5.1753    0.2319   -0.0000 C   0  0  0  0  0  0  0  0  0  0  0  0
    0.0000   -0.5000   -0.0000 C   0  0  0  0  0  0  0  0  0  0  0  0
    5.5820   -0.6817   -0.0000 C   0  0  0  0  0  0  0  0  0  0  0  0
    5.7631    1.0409   -0.0000 C   0  0  0  0  0  0  0  0  0  0  0  0
   -0.9135   -0.0933   -0.0000 C   0  0  0  0  0  0  0  0  0  0  0  0
   -0.1045   -1.4945   -0.0000 C   0  0  0  0  0  0  0  0  0  0  0  0
    6.5765   -0.7862   -0.0000 C   0  0  0  0  0  0  0  0  0  0  0  0
    6.7576    0.9364   -0.0000 C   0  0  0  0  0  0  0  0  0  0  0  0
   -1.1215    0.8849   -0.0000 O   0  0  0  0  0  0  0  0  0  0  0  0
   -1.5827   -0.8364   -0.0000 N   0  0  0  0  0  0  0  0  0  0  0  0
   -1.0827   -1.7024   -0.0000 C   0  0  0  0  0  0  0  0  0  0  0  0
    0.5646   -2.2377   -0.0000 C   0  0  0  0  0  0  0  0  0  0  0  0
    7.1643    0.0228   -0.0000 C   0  0  0  0  0  0  0  0  0  0  0  0
   -1.3917   -2.6535   -0.0000 C   0  0  0  0  0  0  0  0  0  0  0  0
    0.2556   -3.1887   -0.0000 C   0  0  0  0  0  0  0  0  0  0  0  0
    8.1588   -0.0817   -0.0000 F   0  0  0  0  0  0  0  0  0  0  0  0
   -0.7226   -3.3966   -0.0000 C   0  0  0  0  0  0  0  0  0  0  0  0
   -2.3698   -2.8614   -0.0000 C   0  0  0  0  0  0  0  0  0  0  0  0
    0.9247   -3.9319   -0.0000 C   0  0  0  0  0  0  0  0  0  0  0  0
  1  2  1  0  0  0  0
  1  3  1  0  0  0  0
  2  4  2  0  0  0  0
  2  5  1  0  0  0  0
  3  6  2  0  0  0  0
  5  7  2  3  0  0  0
  6  8  1  0  0  0  0
  7  9  1  0  0  0  0
  8 10  2  0  0  0  0
  8 11  1  0  0  0  0
  9 12  2  0  0  0  0
  9 13  1  0  0  0  0
 10 14  1  0  0  0  0
 11 15  2  0  0  0  0
 12 16  1  0  0  0  0
 12 17  1  0  0  0  0
 13 18  2  0  0  0  0
 13 19  1  0  0  0  0
 14 20  2  0  0  0  0
 18 21  1  0  0  0  0
 19 22  2  0  0  0  0
 20 23  1  0  0  0  0
 21 24  2  0  0  0  0
 21 25  1  0  0  0  0
 22 26  1  0  0  0  0
  4  6  1  0  0  0  0
 15 20  1  0  0  0  0
 17 18  1  0  0  0  0
 22 24  1  0  0  0  0
M  END
>  <S/N>
472

>  <Compound ID>
C_489

>  <PubChem CID>
155533261

>  <Isomeric SMILES>
CC1=CC(=C2C(=C1)C(=C(N2)O)N=NC3=NC(=CS3)C4=CC=C(C=C4)F)C

>  <IC50 (�M)>
5.3

>  <pIC50>
5.28

$$$$
C_490
Actelion Java MolfileCreator 1.0

 39 46  0  0  0  0  0  0  0  0999 V2000
    7.8655   -2.3899   -0.0000 O   0  0  0  0  0  0  0  0  0  0  0  0
    6.4952   -3.0000   -0.0000 C   0  0  0  0  0  0  0  0  0  0  0  0
    8.8692   -3.5046   -0.0000 C   0  0  0  0  0  0  0  0  0  0  0  0
    6.6520   -4.4918   -0.0000 N   0  0  0  0  0  0  0  0  0  0  0  0
    5.1962   -2.2500   -0.0000 C   0  0  0  0  0  0  0  0  0  0  0  0
    8.1192   -4.8037   -0.0000 N   0  0  0  0  0  0  0  0  0  0  0  0
   10.3610   -3.3478   -0.0000 C   0  0  0  0  0  0  0  0  0  0  0  0
    5.1962   -0.7500   -0.0000 C   0  0  0  0  0  0  0  0  0  0  0  0
    3.8971   -3.0000   -0.0000 C   0  0  0  0  0  0  0  0  0  0  0  0
   11.3647   -4.4625   -0.0000 C   0  0  0  0  0  0  0  0  0  0  0  0
   11.1110   -2.0488   -0.0000 C   0  0  0  0  0  0  0  0  0  0  0  0
    3.8971    0.0000   -0.0000 C   0  0  0  0  0  0  0  0  0  0  0  0
    2.5981   -2.2500   -0.0000 C   0  0  0  0  0  0  0  0  0  0  0  0
   12.7350   -3.8524   -0.0000 C   0  0  0  0  0  0  0  0  0  0  0  0
   11.2079   -5.9543   -0.0000 C   0  0  0  0  0  0  0  0  0  0  0  0
   12.5782   -2.3606   -0.0000 N   0  0  0  0  0  0  0  0  0  0  0  0
    2.5981   -0.7500   -0.0000 C   0  0  0  0  0  0  0  0  0  0  0  0
   13.9485   -4.7341   -0.0000 C   0  0  0  0  0  0  0  0  0  0  0  0
   12.4214   -6.8360   -0.0000 C   0  0  0  0  0  0  0  0  0  0  0  0
    1.2990   -0.0000   -0.0000 C   0  0  0  0  0  0  0  0  0  0  0  0
   13.7917   -6.2259   -0.0000 C   0  0  0  0  0  0  0  0  0  0  0  0
    1.2990    1.5000   -0.0000 C   0  0  0  0  0  0  0  0  0  0  0  0
    0.0000   -0.7500   -0.0000 C   0  0  0  0  0  0  0  0  0  0  0  0
    2.5126    2.3817   -0.0000 C   0  0  0  0  0  0  0  0  0  0  0  0
    0.0855    2.3817   -0.0000 C   0  0  0  0  0  0  0  0  0  0  0  0
   -1.3703   -0.1399   -0.0000 C   0  0  0  0  0  0  0  0  0  0  0  0
   -0.1568   -2.2418   -0.0000 C   0  0  0  0  0  0  0  0  0  0  0  0
    2.0490    3.8083   -0.0000 C   0  0  0  0  0  0  0  0  0  0  0  0
    3.9798    2.0698   -0.0000 C   0  0  0  0  0  0  0  0  0  0  0  0
    0.5490    3.8083   -0.0000 N   0  0  0  0  0  0  0  0  0  0  0  0
   -2.3740   -1.2546   -0.0000 C   0  0  0  0  0  0  0  0  0  0  0  0
   -1.8338    1.2867   -0.0000 C   0  0  0  0  0  0  0  0  0  0  0  0
   -1.6240   -2.5537   -0.0000 N   0  0  0  0  0  0  0  0  0  0  0  0
    3.0527    4.9230   -0.0000 C   0  0  0  0  0  0  0  0  0  0  0  0
    4.9835    3.1845   -0.0000 C   0  0  0  0  0  0  0  0  0  0  0  0
   -3.8412   -0.9427   -0.0000 C   0  0  0  0  0  0  0  0  0  0  0  0
   -3.3011    1.5986   -0.0000 C   0  0  0  0  0  0  0  0  0  0  0  0
    4.5200    4.6111   -0.0000 C   0  0  0  0  0  0  0  0  0  0  0  0
   -4.3048    0.4838   -0.0000 C   0  0  0  0  0  0  0  0  0  0  0  0
  1  2  1  0  0  0  0
  1  3  1  0  0  0  0
  2  4  2  0  0  0  0
  2  5  1  0  0  0  0
  3  6  2  0  0  0  0
  3  7  1  0  0  0  0
  5  8  2  0  0  0  0
  5  9  1  0  0  0  0
  7 10  1  0  0  0  0
  7 11  2  0  0  0  0
  8 12  1  0  0  0  0
  9 13  2  0  0  0  0
 10 14  2  0  0  0  0
 10 15  1  0  0  0  0
 11 16  1  0  0  0  0
 12 17  2  0  0  0  0
 14 18  1  0  0  0  0
 15 19  2  0  0  0  0
 17 20  1  0  0  0  0
 18 21  2  0  0  0  0
 20 22  1  0  0  0  0
 20 23  1  0  0  0  0
 22 24  1  0  0  0  0
 22 25  2  0  0  0  0
 23 26  1  0  0  0  0
 23 27  2  0  0  0  0
 24 28  2  0  0  0  0
 24 29  1  0  0  0  0
 25 30  1  0  0  0  0
 26 31  2  0  0  0  0
 26 32  1  0  0  0  0
 27 33  1  0  0  0  0
 28 34  1  0  0  0  0
 29 35  2  0  0  0  0
 31 36  1  0  0  0  0
 32 37  2  0  0  0  0
 34 38  2  0  0  0  0
 36 39  2  0  0  0  0
  4  6  1  0  0  0  0
 13 17  1  0  0  0  0
 14 16  1  0  0  0  0
 19 21  1  0  0  0  0
 28 30  1  0  0  0  0
 31 33  1  0  0  0  0
 35 38  1  0  0  0  0
 37 39  1  0  0  0  0
M  END
>  <S/N>
473

>  <Compound ID>
C_490

>  <PubChem CID>
155533288

>  <Isomeric SMILES>
C1=CC=C2C(=C1)C(=CN2)C3=NN=C(O3)C4=CC=C(C=C4)C(C5=CNC6=CC=CC=C65)C7=CNC8=CC=CC=C87

>  <IC50 (�M)>
20

>  <pIC50>
4.7

$$$$
C_491
Actelion Java MolfileCreator 1.0

 37 41  0  0  0  0  0  0  0  0999 V2000
    6.5665   -0.1399   -0.0000 S   0  0  0  0  0  0  0  0  0  0  0  0
    5.1962   -0.7500   -0.0000 C   0  0  0  0  0  0  0  0  0  0  0  0
    7.5702   -1.2546   -0.0000 C   0  0  0  0  0  0  0  0  0  0  0  0
    3.8971   -0.0000   -0.0000 N   0  0  0  0  0  0  0  0  0  0  0  0
    5.3529   -2.2418   -0.0000 N   0  0  0  0  0  0  0  0  0  0  0  0
    6.8202   -2.5537   -0.0000 C   0  0  0  0  0  0  0  0  0  0  0  0
    9.0619   -1.0978   -0.0000 C   0  0  0  0  0  0  0  0  0  0  0  0
    3.8971    1.5000   -0.0000 N   0  0  0  0  0  0  0  0  0  0  0  0
    4.2382   -3.2455   -0.0000 C   0  0  0  0  0  0  0  0  0  0  0  0
    7.4303   -3.9240   -0.0000 O   0  0  0  0  0  0  0  0  0  0  0  0
    9.6721    0.2725   -0.0000 C   0  0  0  0  0  0  0  0  0  0  0  0
    2.5981    2.2500   -0.0000 C   0  0  0  0  0  0  0  0  0  0  0  0
    2.8116   -2.7820   -0.0000 C   0  0  0  0  0  0  0  0  0  0  0  0
    4.5501   -4.7127   -0.0000 C   0  0  0  0  0  0  0  0  0  0  0  0
   11.1638    0.4293   -0.0000 C   0  0  0  0  0  0  0  0  0  0  0  0
    8.7904    1.4860   -0.0000 C   0  0  0  0  0  0  0  0  0  0  0  0
    1.2990    1.5000   -0.0000 O   0  0  0  0  0  0  0  0  0  0  0  0
    2.5981    3.7500   -0.0000 C   0  0  0  0  0  0  0  0  0  0  0  0
    1.6969   -3.7856   -0.0000 C   0  0  0  0  0  0  0  0  0  0  0  0
    3.4354   -5.7164   -0.0000 C   0  0  0  0  0  0  0  0  0  0  0  0
   11.7739    1.7996   -0.0000 C   0  0  0  0  0  0  0  0  0  0  0  0
    9.4005    2.8563   -0.0000 C   0  0  0  0  0  0  0  0  0  0  0  0
    1.2990    4.5000   -0.0000 C   0  0  0  0  0  0  0  0  0  0  0  0
    3.8971    4.5000   -0.0000 C   0  0  0  0  0  0  0  0  0  0  0  0
    0.2703   -3.3221   -0.0000 O   0  0  0  0  0  0  0  0  0  0  0  0
    2.0088   -5.2529   -0.0000 C   0  0  0  0  0  0  0  0  0  0  0  0
   10.8923    3.0131   -0.0000 C   0  0  0  0  0  0  0  0  0  0  0  0
   -0.0000    3.7500   -0.0000 O   0  0  0  0  0  0  0  0  0  0  0  0
    1.2990    6.0000   -0.0000 O   0  0  0  0  0  0  0  0  0  0  0  0
    3.8971    6.0000   -0.0000 C   0  0  0  0  0  0  0  0  0  0  0  0
   -0.8444   -4.3258   -0.0000 C   0  0  0  0  0  0  0  0  0  0  0  0
   11.5024    4.3835   -0.0000 F   0  0  0  0  0  0  0  0  0  0  0  0
    2.5981    6.7500   -0.0000 C   0  0  0  0  0  0  0  0  0  0  0  0
    5.1962    6.7500   -0.0000 C   0  0  0  0  0  0  0  0  0  0  0  0
    2.5981    8.2500   -0.0000 C   0  0  0  0  0  0  0  0  0  0  0  0
    5.1962    8.2500   -0.0000 C   0  0  0  0  0  0  0  0  0  0  0  0
    3.8971    9.0000   -0.0000 C   0  0  0  0  0  0  0  0  0  0  0  0
  1  2  1  0  0  0  0
  1  3  1  0  0  0  0
  2  4  2  0  0  0  0
  2  5  1  0  0  0  0
  3  6  1  0  0  0  0
  3  7  2  0  0  0  0
  4  8  1  0  0  0  0
  5  9  1  0  0  0  0
  6 10  2  0  0  0  0
  7 11  1  0  0  0  0
  8 12  1  0  0  0  0
  9 13  2  0  0  0  0
  9 14  1  0  0  0  0
 11 15  2  0  0  0  0
 11 16  1  0  0  0  0
 12 17  2  0  0  0  0
 12 18  1  0  0  0  0
 13 19  1  0  0  0  0
 14 20  2  0  0  0  0
 15 21  1  0  0  0  0
 16 22  2  0  0  0  0
 18 23  1  0  0  0  0
 18 24  2  0  0  0  0
 19 25  1  0  0  0  0
 19 26  2  0  0  0  0
 21 27  2  0  0  0  0
 23 28  2  0  0  0  0
 23 29  1  0  0  0  0
 24 30  1  0  0  0  0
 25 31  1  0  0  0  0
 27 32  1  0  0  0  0
 29 33  1  0  0  0  0
 30 34  2  0  0  0  0
 33 35  2  0  0  0  0
 34 36  1  0  0  0  0
 35 37  1  0  0  0  0
  5  6  1  0  0  0  0
 20 26  1  0  0  0  0
 22 27  1  0  0  0  0
 30 33  1  0  0  0  0
 36 37  2  0  0  0  0
M  END
>  <S/N>
474

>  <Compound ID>
C_491

>  <PubChem CID>
155533632

>  <Isomeric SMILES>
COC1=CC=CC(=C1)N\2C(=O)/C(=C/C3=CC=C(C=C3)F)/S/C2=N\NC(=O)C4=CC5=CC=CC=C5OC4=O

>  <IC50 (�M)>
0.09

>  <pIC50>
7.05

$$$$
C_492
Actelion Java MolfileCreator 1.0

 23 25  0  0  0  0  0  0  0  0999 V2000
    3.4641    2.5000   -0.0000 Br  0  0  0  0  0  0  0  0  0  0  0  0
    3.4641    1.5000   -0.0000 C   0  0  0  0  0  0  0  0  0  0  0  0
    2.5981    1.0000   -0.0000 C   0  0  0  0  0  0  0  0  0  0  0  0
    4.3301    1.0000   -0.0000 C   0  0  0  0  0  0  0  0  0  0  0  0
    2.5981   -0.0000   -0.0000 C   0  0  0  0  0  0  0  0  0  0  0  0
    4.3301   -0.0000   -0.0000 C   0  0  0  0  0  0  0  0  0  0  0  0
    3.4641   -0.5000   -0.0000 C   0  0  0  0  0  0  0  0  0  0  0  0
    1.7321   -0.5000   -0.0000 C   0  0  0  0  0  0  0  0  0  0  0  0
    3.4641   -1.5000   -0.0000 O   0  0  0  0  0  0  0  0  0  0  0  0
    0.8660   -0.0000   -0.0000 N   0  0  0  0  0  0  0  0  0  0  0  0
    4.3301   -2.0000   -0.0000 C   0  0  0  0  0  0  0  0  0  0  0  0
    0.0000   -0.5000   -0.0000 C   0  0  0  0  0  0  0  0  0  0  0  0
   -0.9135   -0.0933   -0.0000 S   0  0  0  0  0  0  0  0  0  0  0  0
   -0.1045   -1.4945   -0.0000 N   0  0  0  0  0  0  0  0  0  0  0  0
   -1.5827   -0.8364   -0.0000 C   0  0  0  0  0  0  0  0  0  0  0  0
   -1.0827   -1.7024   -0.0000 N   0  0  0  0  0  0  0  0  0  0  0  0
   -2.5772   -0.7319   -0.0000 C   0  0  0  0  0  0  0  0  0  0  0  0
   -2.9839    0.1817   -0.0000 C   0  0  0  0  0  0  0  0  0  0  0  0
   -3.1650   -1.5409   -0.0000 C   0  0  0  0  0  0  0  0  0  0  0  0
   -3.9785    0.2862   -0.0000 C   0  0  0  0  0  0  0  0  0  0  0  0
   -4.1595   -1.4364   -0.0000 C   0  0  0  0  0  0  0  0  0  0  0  0
   -4.5662   -0.5228   -0.0000 C   0  0  0  0  0  0  0  0  0  0  0  0
   -5.5608   -0.4183   -0.0000 Cl  0  0  0  0  0  0  0  0  0  0  0  0
  1  2  1  0  0  0  0
  2  3  2  0  0  0  0
  2  4  1  0  0  0  0
  3  5  1  0  0  0  0
  4  6  2  0  0  0  0
  5  7  2  0  0  0  0
  5  8  1  0  0  0  0
  7  9  1  0  0  0  0
  8 10  2  0  0  0  0
  9 11  1  0  0  0  0
 10 12  1  0  0  0  0
 12 13  1  0  0  0  0
 12 14  2  0  0  0  0
 13 15  1  0  0  0  0
 14 16  1  0  0  0  0
 15 17  1  0  0  0  0
 17 18  2  0  0  0  0
 17 19  1  0  0  0  0
 18 20  1  0  0  0  0
 19 21  2  0  0  0  0
 20 22  2  0  0  0  0
 22 23  1  0  0  0  0
  6  7  1  0  0  0  0
 15 16  2  0  0  0  0
 21 22  1  0  0  0  0
M  END
>  <S/N>
475

>  <Compound ID>
C_492

>  <PubChem CID>
155533650

>  <Isomeric SMILES>
COC1=C(C=C(C=C1)Br)/C=N/C2=NN=C(S2)C3=CC=C(C=C3)Cl

>  <IC50 (�M)>
2.3

>  <pIC50>
5.64

$$$$
C_493
Actelion Java MolfileCreator 1.0

 20 22  0  0  0  0  0  0  0  0999 V2000
    5.5800    0.5305   -0.0000 Cl  0  0  0  0  0  0  0  0  0  0  0  0
    4.6019    0.3226   -0.0000 C   0  0  0  0  0  0  0  0  0  0  0  0
    3.9328    1.0657   -0.0000 C   0  0  0  0  0  0  0  0  0  0  0  0
    4.2929   -0.6285   -0.0000 C   0  0  0  0  0  0  0  0  0  0  0  0
    4.2418    2.0168   -0.0000 Cl  0  0  0  0  0  0  0  0  0  0  0  0
    2.9546    0.8578   -0.0000 C   0  0  0  0  0  0  0  0  0  0  0  0
    3.3147   -0.8364   -0.0000 C   0  0  0  0  0  0  0  0  0  0  0  0
    2.6456   -0.0933   -0.0000 C   0  0  0  0  0  0  0  0  0  0  0  0
    2.8147   -1.7024   -0.0000 N   0  0  0  0  0  0  0  0  0  0  0  0
    1.7321   -0.5000   -0.0000 N   0  0  0  0  0  0  0  0  0  0  0  0
    1.8366   -1.4945   -0.0000 N   0  0  0  0  0  0  0  0  0  0  0  0
    0.8660   -0.0000   -0.0000 C   0  0  0  0  0  0  0  0  0  0  0  0
    0.8660    1.0000   -0.0000 O   0  0  0  0  0  0  0  0  0  0  0  0
    0.0000   -0.5000   -0.0000 C   0  0  0  0  0  0  0  0  0  0  0  0
   -0.8660    0.0000   -0.0000 C   0  0  0  0  0  0  0  0  0  0  0  0
   -0.0000   -1.5000   -0.0000 C   0  0  0  0  0  0  0  0  0  0  0  0
   -1.7321   -0.5000   -0.0000 C   0  0  0  0  0  0  0  0  0  0  0  0
   -0.8660   -2.0000   -0.0000 C   0  0  0  0  0  0  0  0  0  0  0  0
   -2.5981    0.0000   -0.0000 Cl  0  0  0  0  0  0  0  0  0  0  0  0
   -1.7321   -1.5000   -0.0000 C   0  0  0  0  0  0  0  0  0  0  0  0
  1  2  1  0  0  0  0
  2  3  2  0  0  0  0
  2  4  1  0  0  0  0
  3  5  1  0  0  0  0
  3  6  1  0  0  0  0
  4  7  2  0  0  0  0
  6  8  2  0  0  0  0
  7  9  1  0  0  0  0
  8 10  1  0  0  0  0
  9 11  2  0  0  0  0
 10 12  1  0  0  0  0
 12 13  2  0  0  0  0
 12 14  1  0  0  0  0
 14 15  2  0  0  0  0
 14 16  1  0  0  0  0
 15 17  1  0  0  0  0
 16 18  2  0  0  0  0
 17 19  1  0  0  0  0
 17 20  2  0  0  0  0
  7  8  1  0  0  0  0
 10 11  1  0  0  0  0
 18 20  1  0  0  0  0
M  END
>  <S/N>
476

>  <Compound ID>
C_493

>  <PubChem CID>
155533786

>  <Isomeric SMILES>
C1=CC(=CC(=C1)Cl)C(=O)N2C3=CC(=C(C=C3N=N2)Cl)Cl

>  <IC50 (�M)>
3

>  <pIC50>
5.52

$$$$
C_494
Actelion Java MolfileCreator 1.0

 35 39  0  0  0  0  0  0  0  0999 V2000
    7.0397    4.8566   -0.0000 Br  0  0  0  0  0  0  0  0  0  0  0  0
    6.6330    3.9431   -0.0000 C   0  0  0  0  0  0  0  0  0  0  0  0
    5.6385    3.8385   -0.0000 C   0  0  0  0  0  0  0  0  0  0  0  0
    7.2208    3.1341   -0.0000 C   0  0  0  0  0  0  0  0  0  0  0  0
    5.2318    2.9250   -0.0000 C   0  0  0  0  0  0  0  0  0  0  0  0
    6.8141    2.2205   -0.0000 C   0  0  0  0  0  0  0  0  0  0  0  0
    5.8195    2.1160   -0.0000 C   0  0  0  0  0  0  0  0  0  0  0  0
    5.4128    1.2024   -0.0000 C   0  0  0  0  0  0  0  0  0  0  0  0
    4.4347    0.9945   -0.0000 N   0  0  0  0  0  0  0  0  0  0  0  0
    5.9128    0.3364   -0.0000 C   0  0  0  0  0  0  0  0  0  0  0  0
    4.3301   -0.0000   -0.0000 C   0  0  0  0  0  0  0  0  0  0  0  0
    5.2437   -0.4067   -0.0000 S   0  0  0  0  0  0  0  0  0  0  0  0
    3.4641   -0.5000   -0.0000 N   0  0  0  0  0  0  0  0  0  0  0  0
    2.5981   -0.0000   -0.0000 C   0  0  0  0  0  0  0  0  0  0  0  0
    2.5981    1.0000   -0.0000 O   0  0  0  0  0  0  0  0  0  0  0  0
    1.7321   -0.5000   -0.0000 C   0  0  0  0  0  0  0  0  0  0  0  0
    0.8660   -0.0000   -0.0000 S   0  0  0  0  0  0  0  0  0  0  0  0
    0.0000   -0.5000   -0.0000 C   0  0  0  0  0  0  0  0  0  0  0  0
   -0.8660    0.0000   -0.0000 N   0  0  0  0  0  0  0  0  0  0  0  0
   -0.0000   -1.5000   -0.0000 N   0  0  0  0  0  0  0  0  0  0  0  0
   -1.7321   -0.5000   -0.0000 N   0  0  0  0  0  0  0  0  0  0  0  0
   -0.8660   -2.0000   -0.0000 C   0  0  0  0  0  0  0  0  0  0  0  0
   -1.7321   -1.5000   -0.0000 C   0  0  0  0  0  0  0  0  0  0  0  0
   -0.8660   -3.0000   -0.0000 C   0  0  0  0  0  0  0  0  0  0  0  0
   -2.5981   -2.0000   -0.0000 C   0  0  0  0  0  0  0  0  0  0  0  0
   -1.7321   -3.5000   -0.0000 C   0  0  0  0  0  0  0  0  0  0  0  0
   -0.0000   -3.5000   -0.0000 C   0  0  0  0  0  0  0  0  0  0  0  0
   -3.4641   -1.5000   -0.0000 C   0  0  0  0  0  0  0  0  0  0  0  0
   -2.5981   -3.0000   -0.0000 C   0  0  0  0  0  0  0  0  0  0  0  0
   -1.7321   -4.5000   -0.0000 C   0  0  0  0  0  0  0  0  0  0  0  0
   -0.0000   -4.5000   -0.0000 C   0  0  0  0  0  0  0  0  0  0  0  0
   -4.3301   -2.0000   -0.0000 C   0  0  0  0  0  0  0  0  0  0  0  0
   -3.4641   -3.5000   -0.0000 C   0  0  0  0  0  0  0  0  0  0  0  0
   -0.8660   -5.0000   -0.0000 C   0  0  0  0  0  0  0  0  0  0  0  0
   -4.3301   -3.0000   -0.0000 C   0  0  0  0  0  0  0  0  0  0  0  0
  1  2  1  0  0  0  0
  2  3  2  0  0  0  0
  2  4  1  0  0  0  0
  3  5  1  0  0  0  0
  4  6  2  0  0  0  0
  5  7  2  0  0  0  0
  7  8  1  0  0  0  0
  8  9  1  0  0  0  0
  8 10  2  0  0  0  0
  9 11  2  0  0  0  0
 10 12  1  0  0  0  0
 11 13  1  0  0  0  0
 13 14  1  0  0  0  0
 14 15  2  0  0  0  0
 14 16  1  0  0  0  0
 16 17  1  0  0  0  0
 17 18  1  0  0  0  0
 18 19  2  0  0  0  0
 18 20  1  0  0  0  0
 19 21  1  0  0  0  0
 20 22  2  0  0  0  0
 21 23  2  0  0  0  0
 22 24  1  0  0  0  0
 23 25  1  0  0  0  0
 24 26  2  0  0  0  0
 24 27  1  0  0  0  0
 25 28  2  0  0  0  0
 25 29  1  0  0  0  0
 26 30  1  0  0  0  0
 27 31  2  0  0  0  0
 28 32  1  0  0  0  0
 29 33  2  0  0  0  0
 30 34  2  0  0  0  0
 32 35  2  0  0  0  0
  6  7  1  0  0  0  0
 11 12  1  0  0  0  0
 22 23  1  0  0  0  0
 31 34  1  0  0  0  0
 33 35  1  0  0  0  0
M  END
>  <S/N>
477

>  <Compound ID>
C_494

>  <PubChem CID>
155533843

>  <Isomeric SMILES>
C1=CC=C(C=C1)C2=C(N=NC(=N2)SCC(=O)NC3=NC(=CS3)C4=CC=C(C=C4)Br)C5=CC=CC=C5

>  <IC50 (�M)>
2.8

>  <pIC50>
5.55

$$$$
C_495
Actelion Java MolfileCreator 1.0

 41 45  0  0  0  0  0  0  0  0999 V2000
    8.4459  -15.7865   -0.0000 Br  0  0  0  0  0  0  0  0  0  0  0  0
    7.8358  -14.4161   -0.0000 C   0  0  0  0  0  0  0  0  0  0  0  0
    8.7174  -13.2026   -0.0000 C   0  0  0  0  0  0  0  0  0  0  0  0
    6.3440  -14.2593   -0.0000 C   0  0  0  0  0  0  0  0  0  0  0  0
    8.1073  -11.8323   -0.0000 C   0  0  0  0  0  0  0  0  0  0  0  0
    5.7339  -12.8890   -0.0000 C   0  0  0  0  0  0  0  0  0  0  0  0
    8.9890  -10.6188   -0.0000 C   0  0  0  0  0  0  0  0  0  0  0  0
    6.6156  -11.6755   -0.0000 C   0  0  0  0  0  0  0  0  0  0  0  0
   10.4808  -10.7756   -0.0000 O   0  0  0  0  0  0  0  0  0  0  0  0
    8.3789   -9.2484   -0.0000 C   0  0  0  0  0  0  0  0  0  0  0  0
    6.0054  -10.3052   -0.0000 O   0  0  0  0  0  0  0  0  0  0  0  0
    6.8871   -9.0917   -0.0000 C   0  0  0  0  0  0  0  0  0  0  0  0
    9.2606   -8.0349   -0.0000 C   0  0  0  0  0  0  0  0  0  0  0  0
    6.2770   -7.7213   -0.0000 C   0  0  0  0  0  0  0  0  0  0  0  0
   10.7524   -8.1917   -0.0000 O   0  0  0  0  0  0  0  0  0  0  0  0
    8.6505   -6.6646   -0.0000 C   0  0  0  0  0  0  0  0  0  0  0  0
    7.1587   -6.5078   -0.0000 C   0  0  0  0  0  0  0  0  0  0  0  0
   11.6340   -6.9782   -0.0000 C   0  0  0  0  0  0  0  0  0  0  0  0
    6.5486   -5.1375   -0.0000 O   0  0  0  0  0  0  0  0  0  0  0  0
   11.0239   -5.6079   -0.0000 O   0  0  0  0  0  0  0  0  0  0  0  0
   13.1258   -7.1350   -0.0000 C   0  0  0  0  0  0  0  0  0  0  0  0
    7.4303   -3.9240   -0.0000 C   0  0  0  0  0  0  0  0  0  0  0  0
    6.8202   -2.5537   -0.0000 C   0  0  0  0  0  0  0  0  0  0  0  0
    7.5702   -1.2546   -0.0000 N   0  0  0  0  0  0  0  0  0  0  0  0
    5.3529   -2.2418   -0.0000 C   0  0  0  0  0  0  0  0  0  0  0  0
    6.5665   -0.1399   -0.0000 N   0  0  0  0  0  0  0  0  0  0  0  0
    5.1962   -0.7500   -0.0000 N   0  0  0  0  0  0  0  0  0  0  0  0
    3.8971   -0.0000   -0.0000 C   0  0  0  0  0  0  0  0  0  0  0  0
    2.5981   -0.7500   -0.0000 C   0  0  0  0  0  0  0  0  0  0  0  0
    2.5981   -2.2500   -0.0000 O   0  0  0  0  0  0  0  0  0  0  0  0
    1.2990   -0.0000   -0.0000 N   0  0  0  0  0  0  0  0  0  0  0  0
    0.0000   -0.7500   -0.0000 C   0  0  0  0  0  0  0  0  0  0  0  0
   -1.2990    0.0000   -0.0000 C   0  0  0  0  0  0  0  0  0  0  0  0
   -0.0000   -2.2500   -0.0000 C   0  0  0  0  0  0  0  0  0  0  0  0
   -1.2990    1.5000   -0.0000 O   0  0  0  0  0  0  0  0  0  0  0  0
   -2.5981   -0.7500   -0.0000 C   0  0  0  0  0  0  0  0  0  0  0  0
   -1.2990   -3.0000   -0.0000 C   0  0  0  0  0  0  0  0  0  0  0  0
   -2.5981    2.2500   -0.0000 C   0  0  0  0  0  0  0  0  0  0  0  0
   -2.5981   -2.2500   -0.0000 C   0  0  0  0  0  0  0  0  0  0  0  0
   -3.8971   -3.0000   -0.0000 O   0  0  0  0  0  0  0  0  0  0  0  0
   -3.8971   -4.5000   -0.0000 C   0  0  0  0  0  0  0  0  0  0  0  0
  1  2  1  0  0  0  0
  2  3  2  0  0  0  0
  2  4  1  0  0  0  0
  3  5  1  0  0  0  0
  4  6  2  0  0  0  0
  5  7  1  0  0  0  0
  5  8  2  0  0  0  0
  7  9  2  0  0  0  0
  7 10  1  0  0  0  0
  8 11  1  0  0  0  0
 10 12  2  0  0  0  0
 10 13  1  0  0  0  0
 12 14  1  0  0  0  0
 13 15  1  0  0  0  0
 13 16  2  0  0  0  0
 14 17  2  0  0  0  0
 15 18  1  0  0  0  0
 17 19  1  0  0  0  0
 18 20  2  0  0  0  0
 18 21  1  0  0  0  0
 19 22  1  0  0  0  0
 22 23  1  0  0  0  0
 23 24  1  0  0  0  0
 23 25  2  0  0  0  0
 24 26  2  0  0  0  0
 25 27  1  0  0  0  0
 27 28  1  0  0  0  0
 28 29  1  0  0  0  0
 29 30  2  0  0  0  0
 29 31  1  0  0  0  0
 31 32  1  0  0  0  0
 32 33  2  0  0  0  0
 32 34  1  0  0  0  0
 33 35  1  0  0  0  0
 33 36  1  0  0  0  0
 34 37  2  0  0  0  0
 35 38  1  0  0  0  0
 36 39  2  0  0  0  0
 39 40  1  0  0  0  0
 40 41  1  0  0  0  0
  6  8  1  0  0  0  0
 11 12  1  0  0  0  0
 16 17  1  0  0  0  0
 26 27  1  0  0  0  0
 37 39  1  0  0  0  0
M  END
>  <S/N>
478

>  <Compound ID>
C_495

>  <PubChem CID>
155534877

>  <Isomeric SMILES>
CC(=O)OC1=CC(=CC2=C1C(=O)C3=C(O2)C=CC(=C3)Br)OCC4=CN(N=N4)CC(=O)NC5=C(C=C(C=C5)OC)OC

>  <IC50 (�M)>
12.13

>  <pIC50>
4.92

$$$$
C_496
Actelion Java MolfileCreator 1.0

 32 36  0  0  0  0  0  0  0  0999 V2000
    4.0941    1.8486   -0.0000 Cl  0  0  0  0  0  0  0  0  0  0  0  0
    3.9252    0.0000   -0.0000 C   0  0  0  0  0  0  0  0  0  0  0  0
    2.6168   -0.7554   -0.0000 C   0  0  0  0  0  0  0  0  0  0  0  0
    5.2336   -0.7554   -0.0000 C   0  0  0  0  0  0  0  0  0  0  0  0
    2.6168   -2.2662   -0.0000 C   0  0  0  0  0  0  0  0  0  0  0  0
    1.3084   -0.0000   -0.0000 C   0  0  0  0  0  0  0  0  0  0  0  0
    5.2336   -2.2662   -0.0000 C   0  0  0  0  0  0  0  0  0  0  0  0
    3.9252   -3.0216   -0.0000 C   0  0  0  0  0  0  0  0  0  0  0  0
    1.3084    1.5108   -0.0000 C   0  0  0  0  0  0  0  0  0  0  0  0
    0.0000   -0.7554   -0.0000 C   0  0  0  0  0  0  0  0  0  0  0  0
    2.6168    2.2662   -0.0000 C   0  0  0  0  0  0  0  0  0  0  0  0
    0.0000    2.2662   -0.0000 C   0  0  0  0  0  0  0  0  0  0  0  0
    0.0000   -2.2662   -0.0000 C   0  0  0  0  0  0  0  0  0  0  0  0
   -1.3084   -0.0000   -0.0000 C   0  0  0  0  0  0  0  0  0  0  0  0
    3.6175    1.5389   -0.0000 O   0  0  0  0  0  0  0  0  0  0  0  0
    2.6168    3.7770   -0.0000 O   0  0  0  0  0  0  0  0  0  0  0  0
   -1.1450    1.8513   -0.0000 N   0  0  0  0  0  0  0  0  0  0  0  0
   -0.0000    3.7770   -0.0000 C   0  0  0  0  0  0  0  0  0  0  0  0
    1.3084   -3.0216   -0.0000 O   0  0  0  0  0  0  0  0  0  0  0  0
   -1.3084   -3.0216   -0.0000 O   0  0  0  0  0  0  0  0  0  0  0  0
   -1.3901    1.3406   -0.0000 N   0  0  0  0  0  0  0  0  0  0  0  0
   -2.6168   -0.7554   -0.0000 C   0  0  0  0  0  0  0  0  0  0  0  0
    1.3084    4.5324   -0.0000 C   0  0  0  0  0  0  0  0  0  0  0  0
   -1.3084    4.5324   -0.0000 C   0  0  0  0  0  0  0  0  0  0  0  0
   -2.6168   -2.2662   -0.0000 C   0  0  0  0  0  0  0  0  0  0  0  0
   -3.9252   -0.0000   -0.0000 C   0  0  0  0  0  0  0  0  0  0  0  0
    1.3084    6.0432   -0.0000 C   0  0  0  0  0  0  0  0  0  0  0  0
   -1.3084    6.0432   -0.0000 C   0  0  0  0  0  0  0  0  0  0  0  0
   -3.9252   -3.0216   -0.0000 C   0  0  0  0  0  0  0  0  0  0  0  0
   -5.2336   -0.7554   -0.0000 C   0  0  0  0  0  0  0  0  0  0  0  0
    0.0000    6.7986   -0.0000 C   0  0  0  0  0  0  0  0  0  0  0  0
   -5.2336   -2.2662   -0.0000 C   0  0  0  0  0  0  0  0  0  0  0  0
  1  2  1  0  0  0  0
  2  3  2  0  0  0  0
  2  4  1  0  0  0  0
  3  5  1  0  0  0  0
  3  6  1  0  0  0  0
  4  7  2  0  0  0  0
  5  8  2  0  0  0  0
  6  9  1  0  0  0  0
  6 10  1  0  0  0  0
  9 11  1  0  0  0  0
  9 12  2  0  0  0  0
 10 13  1  0  0  0  0
 10 14  2  0  0  0  0
 11 15  2  0  0  0  0
 11 16  1  0  0  0  0
 12 17  1  0  0  0  0
 12 18  1  0  0  0  0
 13 19  2  0  0  0  0
 13 20  1  0  0  0  0
 14 21  1  0  0  0  0
 14 22  1  0  0  0  0
 16 23  1  0  0  0  0
 18 24  2  0  0  0  0
 20 25  1  0  0  0  0
 22 26  2  0  0  0  0
 23 27  2  0  0  0  0
 24 28  1  0  0  0  0
 25 29  2  0  0  0  0
 26 30  1  0  0  0  0
 27 31  1  0  0  0  0
 29 32  1  0  0  0  0
  7  8  1  0  0  0  0
 18 23  1  0  0  0  0
 22 25  1  0  0  0  0
 28 31  2  0  0  0  0
 30 32  2  0  0  0  0
M  END
>  <S/N>
479

>  <Compound ID>
C_496

>  <PubChem CID>
155534978

>  <Isomeric SMILES>
C1=CC=C2C(=C1)C(=C(C(=O)O2)C(C3=CC=CC=C3Cl)C4=C(C5=CC=CC=C5OC4=O)N)N

>  <IC50 (�M)>
20

>  <pIC50>
4.7

$$$$
C_497
Actelion Java MolfileCreator 1.0

 17 19  0  0  0  0  0  0  0  0999 V2000
    0.9706    0.9945   -0.0000 S   0  0  0  0  0  0  0  0  0  0  0  0
    0.8660   -0.0000   -0.0000 C   0  0  0  0  0  0  0  0  0  0  0  0
    1.9487    1.2024   -0.0000 C   0  0  0  0  0  0  0  0  0  0  0  0
    1.7796   -0.4067   -0.0000 N   0  0  0  0  0  0  0  0  0  0  0  0
    0.0000   -0.5000   -0.0000 N   0  0  0  0  0  0  0  0  0  0  0  0
    2.4487    0.3364   -0.0000 N   0  0  0  0  0  0  0  0  0  0  0  0
    2.3554    2.1160   -0.0000 C   0  0  0  0  0  0  0  0  0  0  0  0
    3.3500    2.2205   -0.0000 C   0  0  0  0  0  0  0  0  0  0  0  0
    1.7677    2.9250   -0.0000 C   0  0  0  0  0  0  0  0  0  0  0  0
    3.9377    1.4115   -0.0000 O   0  0  0  0  0  0  0  0  0  0  0  0
    3.7567    3.1341   -0.0000 C   0  0  0  0  0  0  0  0  0  0  0  0
    2.1744    3.8385   -0.0000 C   0  0  0  0  0  0  0  0  0  0  0  0
    3.1689    3.9431   -0.0000 C   0  0  0  0  0  0  0  0  0  0  0  0
    1.5866    4.6476   -0.0000 C   0  0  0  0  0  0  0  0  0  0  0  0
    3.5756    4.8566   -0.0000 C   0  0  0  0  0  0  0  0  0  0  0  0
    1.9933    5.5611   -0.0000 C   0  0  0  0  0  0  0  0  0  0  0  0
    2.9879    5.6656   -0.0000 C   0  0  0  0  0  0  0  0  0  0  0  0
  1  2  1  0  0  0  0
  1  3  1  0  0  0  0
  2  4  2  0  0  0  0
  2  5  1  0  0  0  0
  3  6  2  0  0  0  0
  3  7  1  0  0  0  0
  7  8  1  0  0  0  0
  7  9  2  0  0  0  0
  8 10  1  0  0  0  0
  8 11  2  0  0  0  0
  9 12  1  0  0  0  0
 11 13  1  0  0  0  0
 12 14  1  0  0  0  0
 13 15  1  0  0  0  0
 14 16  2  0  0  0  0
 15 17  2  0  0  0  0
  4  6  1  0  0  0  0
 12 13  2  0  0  0  0
 16 17  1  0  0  0  0
M  END
>  <S/N>
480

>  <Compound ID>
C_497

>  <PubChem CID>
155535264

>  <Isomeric SMILES>
C1=CC=C2C=C(C(=CC2=C1)C3=NN=C(S3)N)O

>  <IC50 (�M)>
2.3

>  <pIC50>
5.64

$$$$
C_498
Actelion Java MolfileCreator 1.0

 26 29  0  0  1  0  0  0  0  0999 V2000
    9.0933   -0.0000   -0.0000 Br  0  0  0  0  0  0  0  0  0  0  0  0
    7.7942   -0.7500   -0.0000 C   0  0  0  0  0  0  0  0  0  0  0  0
    6.4952   -0.0000   -0.0000 C   0  0  0  0  0  0  0  0  0  0  0  0
    7.7942   -2.2500   -0.0000 C   0  0  0  0  0  0  0  0  0  0  0  0
    5.1962   -0.7500   -0.0000 C   0  0  0  0  0  0  0  0  0  0  0  0
    6.4952   -3.0000   -0.0000 C   0  0  0  0  0  0  0  0  0  0  0  0
    5.1962   -2.2500   -0.0000 C   0  0  0  0  0  0  0  0  0  0  0  0
    3.8971   -0.0000   -0.0000 C   0  0  0  0  0  0  0  0  0  0  0  0
    3.8971    1.5000   -0.0000 C   0  0  0  0  0  0  0  0  0  0  0  0
    2.5981   -0.7500   -0.0000 C   0  0  0  0  0  0  0  0  0  0  0  0
    5.1106    2.3817   -0.0000 C   0  0  0  0  0  0  0  0  0  0  0  0
    2.6836    2.3817   -0.0000 C   0  0  0  0  0  0  0  0  0  0  0  0
    1.2990   -0.0000   -0.0000 C   0  0  0  0  0  0  0  0  0  0  0  0
    4.6471    3.8083   -0.0000 C   0  0  0  0  0  0  0  0  0  0  0  0
    6.5779    2.0698   -0.0000 C   0  0  0  0  0  0  0  0  0  0  0  0
    3.1471    3.8083   -0.0000 N   0  0  0  0  0  0  0  0  0  0  0  0
    1.2990    1.5000   -0.0000 O   0  0  0  0  0  0  0  0  0  0  0  0
    0.0000   -0.7500   -0.0000 C   0  0  0  0  0  0  0  0  0  0  0  0
    5.6508    4.9230   -0.0000 C   0  0  0  0  0  0  0  0  0  0  0  0
    7.5816    3.1845   -0.0000 C   0  0  0  0  0  0  0  0  0  0  0  0
   -1.2990    0.0000   -0.0000 C   0  0  0  0  0  0  0  0  0  0  0  0
   -0.0000   -2.2500   -0.0000 C   0  0  0  0  0  0  0  0  0  0  0  0
    7.1180    4.6111   -0.0000 C   0  0  0  0  0  0  0  0  0  0  0  0
   -2.5981   -0.7500   -0.0000 C   0  0  0  0  0  0  0  0  0  0  0  0
   -1.2990   -3.0000   -0.0000 C   0  0  0  0  0  0  0  0  0  0  0  0
   -2.5981   -2.2500   -0.0000 C   0  0  0  0  0  0  0  0  0  0  0  0
  1  2  1  0  0  0  0
  2  3  2  0  0  0  0
  2  4  1  0  0  0  0
  3  5  1  0  0  0  0
  4  6  2  0  0  0  0
  5  7  2  0  0  0  0
  5  8  1  0  0  0  0
  8  9  1  0  0  0  0
  8 10  1  6  0  0  0
  9 11  1  0  0  0  0
  9 12  2  0  0  0  0
 10 13  1  0  0  0  0
 11 14  2  0  0  0  0
 11 15  1  0  0  0  0
 12 16  1  0  0  0  0
 13 17  2  0  0  0  0
 13 18  1  0  0  0  0
 14 19  1  0  0  0  0
 15 20  2  0  0  0  0
 18 21  2  0  0  0  0
 18 22  1  0  0  0  0
 19 23  2  0  0  0  0
 21 24  1  0  0  0  0
 22 25  2  0  0  0  0
 24 26  2  0  0  0  0
  6  7  1  0  0  0  0
 14 16  1  0  0  0  0
 20 23  1  0  0  0  0
 25 26  1  0  0  0  0
M  END
>  <S/N>
481

>  <Compound ID>
C_498

>  <PubChem CID>
155535412

>  <Isomeric SMILES>
C1=CC=C(C=C1)C(=O)C[C@@H](C2=CC(=CC=C2)Br)C3=CNC4=CC=CC=C43

>  <IC50 (�M)>
4.3

>  <pIC50>
5.37

$$$$
C_499
Actelion Java MolfileCreator 1.0

 23 25  0  0  0  0  0  0  0  0999 V2000
    5.3077    4.8566   -0.0000 Cl  0  0  0  0  0  0  0  0  0  0  0  0
    4.9010    3.9431   -0.0000 C   0  0  0  0  0  0  0  0  0  0  0  0
    3.9064    3.8385   -0.0000 C   0  0  0  0  0  0  0  0  0  0  0  0
    5.4887    3.1341   -0.0000 C   0  0  0  0  0  0  0  0  0  0  0  0
    3.4997    2.9250   -0.0000 C   0  0  0  0  0  0  0  0  0  0  0  0
    5.0820    2.2205   -0.0000 C   0  0  0  0  0  0  0  0  0  0  0  0
    4.0875    2.1160   -0.0000 C   0  0  0  0  0  0  0  0  0  0  0  0
    3.6808    1.2024   -0.0000 C   0  0  0  0  0  0  0  0  0  0  0  0
    2.7026    0.9945   -0.0000 S   0  0  0  0  0  0  0  0  0  0  0  0
    4.1808    0.3364   -0.0000 N   0  0  0  0  0  0  0  0  0  0  0  0
    2.5981   -0.0000   -0.0000 C   0  0  0  0  0  0  0  0  0  0  0  0
    3.5116   -0.4067   -0.0000 N   0  0  0  0  0  0  0  0  0  0  0  0
    1.7321   -0.5000   -0.0000 N   0  0  0  0  0  0  0  0  0  0  0  0
    0.8660   -0.0000   -0.0000 C   0  0  0  0  0  0  0  0  0  0  0  0
    0.0000   -0.5000   -0.0000 C   0  0  0  0  0  0  0  0  0  0  0  0
   -0.8660    0.0000   -0.0000 C   0  0  0  0  0  0  0  0  0  0  0  0
   -0.0000   -1.5000   -0.0000 C   0  0  0  0  0  0  0  0  0  0  0  0
   -0.8660    1.0000   -0.0000 N   0  0  0  0  0  0  0  0  0  0  0  0
   -1.7321   -0.5000   -0.0000 C   0  0  0  0  0  0  0  0  0  0  0  0
   -0.8660   -2.0000   -0.0000 C   0  0  0  0  0  0  0  0  0  0  0  0
    0.0000    1.5000   -0.0000 O   0  0  0  0  0  0  0  0  0  0  0  0
   -1.7321    1.5000   -0.0000 O   0  0  0  0  0  0  0  0  0  0  0  0
   -1.7321   -1.5000   -0.0000 C   0  0  0  0  0  0  0  0  0  0  0  0
  1  2  1  0  0  0  0
  2  3  2  0  0  0  0
  2  4  1  0  0  0  0
  3  5  1  0  0  0  0
  4  6  2  0  0  0  0
  5  7  2  0  0  0  0
  7  8  1  0  0  0  0
  8  9  1  0  0  0  0
  8 10  2  0  0  0  0
  9 11  1  0  0  0  0
 10 12  1  0  0  0  0
 11 13  1  0  0  0  0
 13 14  2  0  0  0  0
 14 15  1  0  0  0  0
 15 16  2  0  0  0  0
 15 17  1  0  0  0  0
 16 18  1  0  0  0  0
 16 19  1  0  0  0  0
 17 20  2  0  0  0  0
 18 21  2  0  0  0  0
 18 22  1  0  0  0  0
 19 23  2  0  0  0  0
  6  7  1  0  0  0  0
 11 12  2  0  0  0  0
 20 23  1  0  0  0  0
M  CHG  2  18   1  22  -1
M  END
>  <S/N>
482

>  <Compound ID>
C_499

>  <PubChem CID>
155535503

>  <Isomeric SMILES>
C1=CC=C(C(=C1)/C=N/C2=NN=C(S2)C3=CC=C(C=C3)Cl)[N+](=O)[O-]

>  <IC50 (�M)>
2.3

>  <pIC50>
5.64

$$$$
C_500
Actelion Java MolfileCreator 1.0

 42 49  0  0  0  0  0  0  0  0999 V2000
    0.8073   -3.9319   -0.0000 Cl  0  0  0  0  0  0  0  0  0  0  0  0
    1.4765   -3.1887   -0.0000 C   0  0  0  0  0  0  0  0  0  0  0  0
    1.1674   -2.2377   -0.0000 C   0  0  0  0  0  0  0  0  0  0  0  0
    2.4546   -3.3966   -0.0000 C   0  0  0  0  0  0  0  0  0  0  0  0
    1.8366   -1.4945   -0.0000 C   0  0  0  0  0  0  0  0  0  0  0  0
    3.1237   -2.6535   -0.0000 C   0  0  0  0  0  0  0  0  0  0  0  0
    2.8147   -1.7024   -0.0000 C   0  0  0  0  0  0  0  0  0  0  0  0
    1.7321   -0.5000   -0.0000 C   0  0  0  0  0  0  0  0  0  0  0  0
    3.3147   -0.8364   -0.0000 N   0  0  0  0  0  0  0  0  0  0  0  0
    2.6456   -0.0933   -0.0000 C   0  0  0  0  0  0  0  0  0  0  0  0
    0.8660   -0.0000   -0.0000 C   0  0  0  0  0  0  0  0  0  0  0  0
    0.8660    1.0000   -0.0000 C   0  0  0  0  0  0  0  0  0  0  0  0
    0.0000   -0.5000   -0.0000 C   0  0  0  0  0  0  0  0  0  0  0  0
    1.7321    1.5000   -0.0000 C   0  0  0  0  0  0  0  0  0  0  0  0
    0.0000    1.5000   -0.0000 C   0  0  0  0  0  0  0  0  0  0  0  0
   -0.9135   -0.0933   -0.0000 C   0  0  0  0  0  0  0  0  0  0  0  0
   -0.1045   -1.4945   -0.0000 C   0  0  0  0  0  0  0  0  0  0  0  0
    1.7321    2.5000   -0.0000 C   0  0  0  0  0  0  0  0  0  0  0  0
    0.0000    2.5000   -0.0000 C   0  0  0  0  0  0  0  0  0  0  0  0
   -1.5827   -0.8364   -0.0000 C   0  0  0  0  0  0  0  0  0  0  0  0
   -1.2226    0.8578   -0.0000 C   0  0  0  0  0  0  0  0  0  0  0  0
   -1.0827   -1.7024   -0.0000 N   0  0  0  0  0  0  0  0  0  0  0  0
    0.8660    3.0000   -0.0000 C   0  0  0  0  0  0  0  0  0  0  0  0
   -2.5608   -0.6285   -0.0000 C   0  0  0  0  0  0  0  0  0  0  0  0
   -2.2007    1.0657   -0.0000 C   0  0  0  0  0  0  0  0  0  0  0  0
    0.8660    4.0000   -0.0000 C   0  0  0  0  0  0  0  0  0  0  0  0
   -2.8698    0.3226   -0.0000 C   0  0  0  0  0  0  0  0  0  0  0  0
   -2.5097    2.0168   -0.0000 Cl  0  0  0  0  0  0  0  0  0  0  0  0
    1.6750    4.5878   -0.0000 O   0  0  0  0  0  0  0  0  0  0  0  0
    0.0570    4.5878   -0.0000 N   0  0  0  0  0  0  0  0  0  0  0  0
    1.3660    5.5388   -0.0000 C   0  0  0  0  0  0  0  0  0  0  0  0
    0.3660    5.5388   -0.0000 N   0  0  0  0  0  0  0  0  0  0  0  0
    1.9538    6.3479   -0.0000 C   0  0  0  0  0  0  0  0  0  0  0  0
    2.9538    6.3479   -0.0000 C   0  0  0  0  0  0  0  0  0  0  0  0
    1.6448    7.2989   -0.0000 C   0  0  0  0  0  0  0  0  0  0  0  0
    3.2628    7.2989   -0.0000 C   0  0  0  0  0  0  0  0  0  0  0  0
    3.6229    5.6047   -0.0000 C   0  0  0  0  0  0  0  0  0  0  0  0
    2.4538    7.8867   -0.0000 N   0  0  0  0  0  0  0  0  0  0  0  0
    4.2410    7.5068   -0.0000 C   0  0  0  0  0  0  0  0  0  0  0  0
    4.6011    5.8126   -0.0000 C   0  0  0  0  0  0  0  0  0  0  0  0
    2.4538    8.8867   -0.0000 C   0  0  0  0  0  0  0  0  0  0  0  0
    4.9101    6.7637   -0.0000 C   0  0  0  0  0  0  0  0  0  0  0  0
  1  2  1  0  0  0  0
  2  3  2  0  0  0  0
  2  4  1  0  0  0  0
  3  5  1  0  0  0  0
  4  6  2  0  0  0  0
  5  7  2  0  0  0  0
  5  8  1  0  0  0  0
  7  9  1  0  0  0  0
  8 10  2  0  0  0  0
  8 11  1  0  0  0  0
 11 12  1  0  0  0  0
 11 13  1  0  0  0  0
 12 14  2  0  0  0  0
 12 15  1  0  0  0  0
 13 16  1  0  0  0  0
 13 17  2  0  0  0  0
 14 18  1  0  0  0  0
 15 19  2  0  0  0  0
 16 20  2  0  0  0  0
 16 21  1  0  0  0  0
 17 22  1  0  0  0  0
 18 23  2  0  0  0  0
 20 24  1  0  0  0  0
 21 25  2  0  0  0  0
 23 26  1  0  0  0  0
 24 27  2  0  0  0  0
 25 28  1  0  0  0  0
 26 29  1  0  0  0  0
 26 30  2  0  0  0  0
 29 31  1  0  0  0  0
 30 32  1  0  0  0  0
 31 33  1  0  0  0  0
 33 34  1  0  0  0  0
 33 35  2  0  0  0  0
 34 36  2  0  0  0  0
 34 37  1  0  0  0  0
 35 38  1  0  0  0  0
 36 39  1  0  0  0  0
 37 40  2  0  0  0  0
 38 41  1  0  0  0  0
 39 42  2  0  0  0  0
  6  7  1  0  0  0  0
  9 10  1  0  0  0  0
 19 23  1  0  0  0  0
 20 22  1  0  0  0  0
 25 27  1  0  0  0  0
 31 32  2  0  0  0  0
 36 38  1  0  0  0  0
 40 42  1  0  0  0  0
M  END
>  <S/N>
483

>  <Compound ID>
C_500

>  <PubChem CID>
155535751

>  <Isomeric SMILES>
CN1C=C(C2=CC=CC=C21)C3=NN=C(O3)C4=CC=C(C=C4)C(C5=CNC6=C5C=C(C=C6)Cl)C7=CNC8=C7C=C(C=C8)Cl

>  <IC50 (�M)>
20

>  <pIC50>
4.7

$$$$
C_501
Actelion Java MolfileCreator 1.0

 22 24  0  0  0  0  0  0  0  0999 V2000
    5.1962   -0.5000   -0.0000 Cl  0  0  0  0  0  0  0  0  0  0  0  0
    4.3301   -0.0000   -0.0000 C   0  0  0  0  0  0  0  0  0  0  0  0
    4.3301    1.0000   -0.0000 C   0  0  0  0  0  0  0  0  0  0  0  0
    3.4641   -0.5000   -0.0000 C   0  0  0  0  0  0  0  0  0  0  0  0
    5.1962    1.5000   -0.0000 Cl  0  0  0  0  0  0  0  0  0  0  0  0
    3.4641    1.5000   -0.0000 C   0  0  0  0  0  0  0  0  0  0  0  0
    2.5981   -0.0000   -0.0000 C   0  0  0  0  0  0  0  0  0  0  0  0
    2.5981    1.0000   -0.0000 C   0  0  0  0  0  0  0  0  0  0  0  0
    1.7321   -0.5000   -0.0000 C   0  0  0  0  0  0  0  0  0  0  0  0
    1.7321   -1.5000   -0.0000 O   0  0  0  0  0  0  0  0  0  0  0  0
    0.8660   -0.0000   -0.0000 C   0  0  0  0  0  0  0  0  0  0  0  0
    0.0000   -0.5000   -0.0000 N   0  0  0  0  0  0  0  0  0  0  0  0
   -0.9135   -0.0933   -0.0000 N   0  0  0  0  0  0  0  0  0  0  0  0
   -0.1045   -1.4945   -0.0000 C   0  0  0  0  0  0  0  0  0  0  0  0
   -1.5827   -0.8364   -0.0000 N   0  0  0  0  0  0  0  0  0  0  0  0
   -1.0827   -1.7024   -0.0000 C   0  0  0  0  0  0  0  0  0  0  0  0
    0.5646   -2.2377   -0.0000 C   0  0  0  0  0  0  0  0  0  0  0  0
   -1.3917   -2.6535   -0.0000 C   0  0  0  0  0  0  0  0  0  0  0  0
    0.2556   -3.1887   -0.0000 C   0  0  0  0  0  0  0  0  0  0  0  0
   -0.7226   -3.3966   -0.0000 C   0  0  0  0  0  0  0  0  0  0  0  0
    0.9247   -3.9319   -0.0000 C   0  0  0  0  0  0  0  0  0  0  0  0
   -1.0316   -4.3477   -0.0000 C   0  0  0  0  0  0  0  0  0  0  0  0
  1  2  1  0  0  0  0
  2  3  2  0  0  0  0
  2  4  1  0  0  0  0
  3  5  1  0  0  0  0
  3  6  1  0  0  0  0
  4  7  2  0  0  0  0
  6  8  2  0  0  0  0
  7  9  1  0  0  0  0
  9 10  2  0  0  0  0
  9 11  1  0  0  0  0
 11 12  1  0  0  0  0
 12 13  1  0  0  0  0
 12 14  1  0  0  0  0
 13 15  2  0  0  0  0
 14 16  2  0  0  0  0
 14 17  1  0  0  0  0
 16 18  1  0  0  0  0
 17 19  2  0  0  0  0
 18 20  2  0  0  0  0
 19 21  1  0  0  0  0
 20 22  1  0  0  0  0
  7  8  1  0  0  0  0
 15 16  1  0  0  0  0
 19 20  1  0  0  0  0
M  END
>  <S/N>
484

>  <Compound ID>
C_501

>  <PubChem CID>
155535829

>  <Isomeric SMILES>
CC1=CC2=C(C=C1C)N(N=N2)CC(=O)C3=CC(=C(C=C3)Cl)Cl

>  <IC50 (�M)>
2.04

>  <pIC50>
5.69

$$$$
C_502
Actelion Java MolfileCreator 1.0

 36 40  0  0  0  0  0  0  0  0999 V2000
    9.9708   -7.4973   -0.0000 Br  0  0  0  0  0  0  0  0  0  0  0  0
    8.9762   -7.3928   -0.0000 C   0  0  0  0  0  0  0  0  0  0  0  0
    8.5695   -6.4792   -0.0000 C   0  0  0  0  0  0  0  0  0  0  0  0
    8.3885   -8.2018   -0.0000 C   0  0  0  0  0  0  0  0  0  0  0  0
    7.5750   -6.3747   -0.0000 C   0  0  0  0  0  0  0  0  0  0  0  0
    7.3939   -8.0973   -0.0000 C   0  0  0  0  0  0  0  0  0  0  0  0
    7.1682   -5.4611   -0.0000 O   0  0  0  0  0  0  0  0  0  0  0  0
    6.9872   -7.1837   -0.0000 C   0  0  0  0  0  0  0  0  0  0  0  0
    6.1737   -5.3566   -0.0000 C   0  0  0  0  0  0  0  0  0  0  0  0
    5.9927   -7.0792   -0.0000 C   0  0  0  0  0  0  0  0  0  0  0  0
    5.5859   -6.1656   -0.0000 C   0  0  0  0  0  0  0  0  0  0  0  0
    5.7670   -4.4431   -0.0000 C   0  0  0  0  0  0  0  0  0  0  0  0
    5.4049   -7.8882   -0.0000 O   0  0  0  0  0  0  0  0  0  0  0  0
    4.5914   -6.0611   -0.0000 C   0  0  0  0  0  0  0  0  0  0  0  0
    4.7725   -4.3385   -0.0000 C   0  0  0  0  0  0  0  0  0  0  0  0
    4.0036   -6.8701   -0.0000 O   0  0  0  0  0  0  0  0  0  0  0  0
    4.1847   -5.1476   -0.0000 C   0  0  0  0  0  0  0  0  0  0  0  0
    4.3657   -3.4250   -0.0000 O   0  0  0  0  0  0  0  0  0  0  0  0
    4.9535   -2.6160   -0.0000 C   0  0  0  0  0  0  0  0  0  0  0  0
    4.5468   -1.7024   -0.0000 C   0  0  0  0  0  0  0  0  0  0  0  0
    5.0468   -0.8364   -0.0000 N   0  0  0  0  0  0  0  0  0  0  0  0
    3.5686   -1.4945   -0.0000 C   0  0  0  0  0  0  0  0  0  0  0  0
    4.3776   -0.0933   -0.0000 N   0  0  0  0  0  0  0  0  0  0  0  0
    3.4641   -0.5000   -0.0000 N   0  0  0  0  0  0  0  0  0  0  0  0
    2.5981   -0.0000   -0.0000 C   0  0  0  0  0  0  0  0  0  0  0  0
    1.7321   -0.5000   -0.0000 C   0  0  0  0  0  0  0  0  0  0  0  0
    1.7321   -1.5000   -0.0000 O   0  0  0  0  0  0  0  0  0  0  0  0
    0.8660   -0.0000   -0.0000 N   0  0  0  0  0  0  0  0  0  0  0  0
    0.0000   -0.5000   -0.0000 C   0  0  0  0  0  0  0  0  0  0  0  0
   -0.8660    0.0000   -0.0000 C   0  0  0  0  0  0  0  0  0  0  0  0
   -0.0000   -1.5000   -0.0000 C   0  0  0  0  0  0  0  0  0  0  0  0
   -1.7321   -0.5000   -0.0000 C   0  0  0  0  0  0  0  0  0  0  0  0
   -0.8660   -2.0000   -0.0000 C   0  0  0  0  0  0  0  0  0  0  0  0
   -2.5981    0.0000   -0.0000 O   0  0  0  0  0  0  0  0  0  0  0  0
   -1.7321   -1.5000   -0.0000 C   0  0  0  0  0  0  0  0  0  0  0  0
   -2.5981   -2.0000   -0.0000 O   0  0  0  0  0  0  0  0  0  0  0  0
  1  2  1  0  0  0  0
  2  3  2  0  0  0  0
  2  4  1  0  0  0  0
  3  5  1  0  0  0  0
  4  6  2  0  0  0  0
  5  7  1  0  0  0  0
  5  8  2  0  0  0  0
  7  9  1  0  0  0  0
  8 10  1  0  0  0  0
  9 11  2  0  0  0  0
  9 12  1  0  0  0  0
 10 13  2  0  0  0  0
 11 14  1  0  0  0  0
 12 15  2  0  0  0  0
 14 16  1  0  0  0  0
 14 17  2  0  0  0  0
 15 18  1  0  0  0  0
 18 19  1  0  0  0  0
 19 20  1  0  0  0  0
 20 21  1  0  0  0  0
 20 22  2  0  0  0  0
 21 23  2  0  0  0  0
 22 24  1  0  0  0  0
 24 25  1  0  0  0  0
 25 26  1  0  0  0  0
 26 27  2  0  0  0  0
 26 28  1  0  0  0  0
 28 29  1  0  0  0  0
 29 30  2  0  0  0  0
 29 31  1  0  0  0  0
 30 32  1  0  0  0  0
 31 33  2  0  0  0  0
 32 34  1  0  0  0  0
 32 35  2  0  0  0  0
 35 36  1  0  0  0  0
  6  8  1  0  0  0  0
 10 11  1  0  0  0  0
 15 17  1  0  0  0  0
 23 24  1  0  0  0  0
 33 35  1  0  0  0  0
M  END
>  <S/N>
485

>  <Compound ID>
C_502

>  <PubChem CID>
155536131

>  <Isomeric SMILES>
C1=CC(=C(C=C1NC(=O)CN2C=C(N=N2)COC3=CC(=C4C(=C3)OC5=C(C4=O)C=CC(=C5)Br)O)O)O

>  <IC50 (�M)>
5.23

>  <pIC50>
5.28

$$$$
C_503
Actelion Java MolfileCreator 1.0

 25 28  0  0  0  0  0  0  0  0999 V2000
    7.1643    0.0228   -0.0000 Br  0  0  0  0  0  0  0  0  0  0  0  0
    6.5765   -0.7862   -0.0000 C   0  0  0  0  0  0  0  0  0  0  0  0
    5.5820   -0.6817   -0.0000 C   0  0  0  0  0  0  0  0  0  0  0  0
    6.9833   -1.6997   -0.0000 C   0  0  0  0  0  0  0  0  0  0  0  0
    4.9942   -1.4907   -0.0000 C   0  0  0  0  0  0  0  0  0  0  0  0
    5.1753    0.2319   -0.0000 C   0  0  0  0  0  0  0  0  0  0  0  0
    6.3955   -2.5088   -0.0000 C   0  0  0  0  0  0  0  0  0  0  0  0
    5.4010   -2.4042   -0.0000 C   0  0  0  0  0  0  0  0  0  0  0  0
    4.1808    0.3364   -0.0000 N   0  0  0  0  0  0  0  0  0  0  0  0
    3.6808    1.2024   -0.0000 N   0  0  0  0  0  0  0  0  0  0  0  0
    3.5116   -0.4067   -0.0000 C   0  0  0  0  0  0  0  0  0  0  0  0
    2.7026    0.9945   -0.0000 N   0  0  0  0  0  0  0  0  0  0  0  0
    2.5981   -0.0000   -0.0000 C   0  0  0  0  0  0  0  0  0  0  0  0
    1.7321   -0.5000   -0.0000 C   0  0  0  0  0  0  0  0  0  0  0  0
    0.8660   -0.0000   -0.0000 S   0  0  0  0  0  0  0  0  0  0  0  0
    0.0000   -0.5000   -0.0000 C   0  0  0  0  0  0  0  0  0  0  0  0
   -0.9135   -0.0933   -0.0000 S   0  0  0  0  0  0  0  0  0  0  0  0
   -0.1045   -1.4945   -0.0000 N   0  0  0  0  0  0  0  0  0  0  0  0
   -1.5827   -0.8364   -0.0000 C   0  0  0  0  0  0  0  0  0  0  0  0
   -1.0827   -1.7024   -0.0000 C   0  0  0  0  0  0  0  0  0  0  0  0
   -2.5827   -0.8364   -0.0000 C   0  0  0  0  0  0  0  0  0  0  0  0
   -1.5827   -2.5685   -0.0000 C   0  0  0  0  0  0  0  0  0  0  0  0
   -3.0827   -1.7024   -0.0000 C   0  0  0  0  0  0  0  0  0  0  0  0
   -2.5827   -2.5685   -0.0000 C   0  0  0  0  0  0  0  0  0  0  0  0
   -3.0827   -3.4345   -0.0000 Cl  0  0  0  0  0  0  0  0  0  0  0  0
  1  2  1  0  0  0  0
  2  3  2  0  0  0  0
  2  4  1  0  0  0  0
  3  5  1  0  0  0  0
  3  6  1  0  0  0  0
  4  7  2  0  0  0  0
  5  8  2  0  0  0  0
  6  9  1  0  0  0  0
  9 10  1  0  0  0  0
  9 11  1  0  0  0  0
 10 12  2  0  0  0  0
 11 13  2  0  0  0  0
 13 14  1  0  0  0  0
 14 15  1  0  0  0  0
 15 16  1  0  0  0  0
 16 17  1  0  0  0  0
 16 18  2  0  0  0  0
 17 19  1  0  0  0  0
 18 20  1  0  0  0  0
 19 21  2  0  0  0  0
 20 22  2  0  0  0  0
 21 23  1  0  0  0  0
 22 24  1  0  0  0  0
 24 25  1  0  0  0  0
  7  8  1  0  0  0  0
 12 13  1  0  0  0  0
 19 20  1  0  0  0  0
 23 24  2  0  0  0  0
M  END
>  <S/N>
486

>  <Compound ID>
C_503

>  <PubChem CID>
155536491

>  <Isomeric SMILES>
C1=CC=C(C(=C1)CN2C=C(N=N2)CSC3=NC4=C(S3)C=CC(=C4)Cl)Br

>  <IC50 (�M)>
20

>  <pIC50>
4.7

$$$$
C_504
Actelion Java MolfileCreator 1.0

 41 48  0  0  0  0  0  0  0  0999 V2000
    0.8073   -3.9319   -0.0000 Cl  0  0  0  0  0  0  0  0  0  0  0  0
    1.4765   -3.1887   -0.0000 C   0  0  0  0  0  0  0  0  0  0  0  0
    1.1674   -2.2377   -0.0000 C   0  0  0  0  0  0  0  0  0  0  0  0
    2.4546   -3.3966   -0.0000 C   0  0  0  0  0  0  0  0  0  0  0  0
    1.8366   -1.4945   -0.0000 C   0  0  0  0  0  0  0  0  0  0  0  0
    3.1237   -2.6535   -0.0000 C   0  0  0  0  0  0  0  0  0  0  0  0
    2.8147   -1.7024   -0.0000 C   0  0  0  0  0  0  0  0  0  0  0  0
    1.7321   -0.5000   -0.0000 C   0  0  0  0  0  0  0  0  0  0  0  0
    3.3147   -0.8364   -0.0000 N   0  0  0  0  0  0  0  0  0  0  0  0
    2.6456   -0.0933   -0.0000 C   0  0  0  0  0  0  0  0  0  0  0  0
    0.8660   -0.0000   -0.0000 C   0  0  0  0  0  0  0  0  0  0  0  0
    0.8660    1.0000   -0.0000 C   0  0  0  0  0  0  0  0  0  0  0  0
    0.0000   -0.5000   -0.0000 C   0  0  0  0  0  0  0  0  0  0  0  0
    1.7321    1.5000   -0.0000 C   0  0  0  0  0  0  0  0  0  0  0  0
    0.0000    1.5000   -0.0000 C   0  0  0  0  0  0  0  0  0  0  0  0
   -0.9135   -0.0933   -0.0000 C   0  0  0  0  0  0  0  0  0  0  0  0
   -0.1045   -1.4945   -0.0000 C   0  0  0  0  0  0  0  0  0  0  0  0
    1.7321    2.5000   -0.0000 C   0  0  0  0  0  0  0  0  0  0  0  0
    0.0000    2.5000   -0.0000 C   0  0  0  0  0  0  0  0  0  0  0  0
   -1.5827   -0.8364   -0.0000 C   0  0  0  0  0  0  0  0  0  0  0  0
   -1.2226    0.8578   -0.0000 C   0  0  0  0  0  0  0  0  0  0  0  0
   -1.0827   -1.7024   -0.0000 N   0  0  0  0  0  0  0  0  0  0  0  0
    0.8660    3.0000   -0.0000 C   0  0  0  0  0  0  0  0  0  0  0  0
   -2.5608   -0.6285   -0.0000 C   0  0  0  0  0  0  0  0  0  0  0  0
   -2.2007    1.0657   -0.0000 C   0  0  0  0  0  0  0  0  0  0  0  0
    0.8660    4.0000   -0.0000 C   0  0  0  0  0  0  0  0  0  0  0  0
   -2.8698    0.3226   -0.0000 C   0  0  0  0  0  0  0  0  0  0  0  0
    1.6750    4.5878   -0.0000 O   0  0  0  0  0  0  0  0  0  0  0  0
    0.0570    4.5878   -0.0000 N   0  0  0  0  0  0  0  0  0  0  0  0
    1.3660    5.5388   -0.0000 C   0  0  0  0  0  0  0  0  0  0  0  0
    0.3660    5.5388   -0.0000 N   0  0  0  0  0  0  0  0  0  0  0  0
    1.9538    6.3479   -0.0000 C   0  0  0  0  0  0  0  0  0  0  0  0
    2.9538    6.3479   -0.0000 C   0  0  0  0  0  0  0  0  0  0  0  0
    1.6448    7.2989   -0.0000 C   0  0  0  0  0  0  0  0  0  0  0  0
    3.2628    7.2989   -0.0000 C   0  0  0  0  0  0  0  0  0  0  0  0
    3.6229    5.6047   -0.0000 C   0  0  0  0  0  0  0  0  0  0  0  0
    2.4538    7.8867   -0.0000 N   0  0  0  0  0  0  0  0  0  0  0  0
    4.2410    7.5068   -0.0000 C   0  0  0  0  0  0  0  0  0  0  0  0
    4.6011    5.8126   -0.0000 C   0  0  0  0  0  0  0  0  0  0  0  0
    2.4538    8.8867   -0.0000 C   0  0  0  0  0  0  0  0  0  0  0  0
    4.9101    6.7637   -0.0000 C   0  0  0  0  0  0  0  0  0  0  0  0
  1  2  1  0  0  0  0
  2  3  2  0  0  0  0
  2  4  1  0  0  0  0
  3  5  1  0  0  0  0
  4  6  2  0  0  0  0
  5  7  2  0  0  0  0
  5  8  1  0  0  0  0
  7  9  1  0  0  0  0
  8 10  2  0  0  0  0
 11  8  1  6  0  0  0
 11 12  1  0  0  0  0
 11 13  1  0  0  0  0
 12 14  2  0  0  0  0
 12 15  1  0  0  0  0
 13 16  1  0  0  0  0
 13 17  2  0  0  0  0
 14 18  1  0  0  0  0
 15 19  2  0  0  0  0
 16 20  2  0  0  0  0
 16 21  1  0  0  0  0
 17 22  1  0  0  0  0
 18 23  2  0  0  0  0
 20 24  1  0  0  0  0
 21 25  2  0  0  0  0
 23 26  1  0  0  0  0
 24 27  2  0  0  0  0
 26 28  1  0  0  0  0
 26 29  2  0  0  0  0
 28 30  1  0  0  0  0
 29 31  1  0  0  0  0
 30 32  1  0  0  0  0
 32 33  1  0  0  0  0
 32 34  2  0  0  0  0
 33 35  2  0  0  0  0
 33 36  1  0  0  0  0
 34 37  1  0  0  0  0
 35 38  1  0  0  0  0
 36 39  2  0  0  0  0
 37 40  1  0  0  0  0
 38 41  2  0  0  0  0
  6  7  1  0  0  0  0
  9 10  1  0  0  0  0
 19 23  1  0  0  0  0
 20 22  1  0  0  0  0
 25 27  1  0  0  0  0
 30 31  2  0  0  0  0
 35 37  1  0  0  0  0
 39 41  1  0  0  0  0
M  END
>  <S/N>
487

>  <Compound ID>
C_504

>  <PubChem CID>
155536535

>  <Isomeric SMILES>
CN1C=C(C2=CC=CC=C21)C3=NN=C(O3)C4=CC=C(C=C4)C(C5=CNC6=C5C=C(C=C6)Cl)C7=CNC8=CC=CC=C87

>  <IC50 (�M)>
2

>  <pIC50>
5.7

$$$$
C_505
Actelion Java MolfileCreator 1.0

 34 37  0  0  1  0  0  0  0  0999 V2000
    7.0873   -4.9499   -0.0000 F   0  0  0  0  0  0  0  0  0  0  0  0
    6.1737   -5.3566   -0.0000 C   0  0  0  0  0  0  0  0  0  0  0  0
    6.5805   -6.2702   -0.0000 F   0  0  0  0  0  0  0  0  0  0  0  0
    5.2602   -5.7634   -0.0000 F   0  0  0  0  0  0  0  0  0  0  0  0
    5.7670   -4.4431   -0.0000 C   0  0  0  0  0  0  0  0  0  0  0  0
    6.3548   -3.6341   -0.0000 C   0  0  0  0  0  0  0  0  0  0  0  0
    4.7725   -4.3385   -0.0000 C   0  0  0  0  0  0  0  0  0  0  0  0
    5.9480   -2.7205   -0.0000 C   0  0  0  0  0  0  0  0  0  0  0  0
    4.3657   -3.4250   -0.0000 C   0  0  0  0  0  0  0  0  0  0  0  0
    4.9535   -2.6160   -0.0000 C   0  0  0  0  0  0  0  0  0  0  0  0
    4.5468   -1.7024   -0.0000 C   0  0  0  0  0  0  0  0  0  0  0  0
    5.0468   -0.8364   -0.0000 N   0  0  0  0  0  0  0  0  0  0  0  0
    3.5686   -1.4945   -0.0000 C   0  0  0  0  0  0  0  0  0  0  0  0
    4.3776   -0.0933   -0.0000 N   0  0  0  0  0  0  0  0  0  0  0  0
    3.4641   -0.5000   -0.0000 N   0  0  0  0  0  0  0  0  0  0  0  0
    2.5981   -0.0000   -0.0000 C   0  0  0  0  0  0  0  0  0  0  0  0
    1.7321   -0.5000   -0.0000 C   0  0  0  0  0  0  0  0  0  0  0  0
    0.8660   -0.0000   -0.0000 O   0  0  0  0  0  0  0  0  0  0  0  0
    1.7321   -1.5000   -0.0000 C   0  0  0  0  0  0  0  0  0  0  0  0
    0.0000   -0.5000   -0.0000 C   0  0  0  0  0  0  0  0  0  0  0  0
   -0.8660    0.0000   -0.0000 C   0  0  0  0  0  0  0  0  0  0  0  0
   -0.0000   -1.5000   -0.0000 C   0  0  0  0  0  0  0  0  0  0  0  0
   -0.8660    1.0000   -0.0000 O   0  0  0  0  0  0  0  0  0  0  0  0
   -1.7321   -0.5000   -0.0000 C   0  0  0  0  0  0  0  0  0  0  0  0
   -0.8660   -2.0000   -0.0000 C   0  0  0  0  0  0  0  0  0  0  0  0
   -1.7321    1.5000   -0.0000 C   0  0  0  0  0  0  0  0  0  0  0  0
   -1.7321   -1.5000   -0.0000 C   0  0  0  0  0  0  0  0  0  0  0  0
   -2.5981   -2.0000   -0.0000 C   0  0  0  0  0  0  0  0  0  0  0  0
   -3.4641   -1.5000   -0.0000 C   0  0  0  0  0  0  0  0  0  0  0  0
   -2.5981   -3.0000   -0.0000 C   0  0  0  0  0  0  0  0  0  0  0  0
   -4.3301   -2.0000   -0.0000 C   0  0  0  0  0  0  0  0  0  0  0  0
   -3.4641   -3.5000   -0.0000 C   0  0  0  0  0  0  0  0  0  0  0  0
   -4.3301   -3.0000   -0.0000 C   0  0  0  0  0  0  0  0  0  0  0  0
   -5.1962   -3.5000   -0.0000 C   0  0  0  0  0  0  0  0  0  0  0  0
  1  2  1  0  0  0  0
  2  3  1  0  0  0  0
  2  4  1  0  0  0  0
  2  5  1  0  0  0  0
  5  6  2  0  0  0  0
  5  7  1  0  0  0  0
  6  8  1  0  0  0  0
  7  9  2  0  0  0  0
  8 10  2  0  0  0  0
 10 11  1  0  0  0  0
 11 12  1  0  0  0  0
 11 13  2  0  0  0  0
 12 14  2  0  0  0  0
 13 15  1  0  0  0  0
 15 16  1  0  0  0  0
 16 17  1  0  0  0  0
 17 18  1  0  0  0  0
 17 19  1  1  0  0  0
 18 20  1  0  0  0  0
 20 21  2  0  0  0  0
 20 22  1  0  0  0  0
 21 23  1  0  0  0  0
 21 24  1  0  0  0  0
 22 25  2  0  0  0  0
 23 26  1  0  0  0  0
 24 27  2  0  0  0  0
 27 28  1  0  0  0  0
 28 29  2  0  0  0  0
 28 30  1  0  0  0  0
 29 31  1  0  0  0  0
 30 32  2  0  0  0  0
 31 33  2  0  0  0  0
 33 34  1  0  0  0  0
  9 10  1  0  0  0  0
 14 15  1  0  0  0  0
 25 27  1  0  0  0  0
 32 33  1  0  0  0  0
M  END
>  <S/N>
488

>  <Compound ID>
C_505

>  <PubChem CID>
155536538

>  <Isomeric SMILES>
CC1=CC=C(C=C1)C2=CC(=C(C=C2)O[C@H](C)CN3C=C(N=N3)C4=CC=C(C=C4)C(F)(F)F)OC

>  <IC50 (�M)>
14

>  <pIC50>
4.85

$$$$
C_506
Actelion Java MolfileCreator 1.0

 23 25  0  0  0  0  0  0  0  0999 V2000
    5.1962   -1.5000   -0.0000 O   0  0  0  0  0  0  0  0  0  0  0  0
    5.1962   -0.5000   -0.0000 C   0  0  0  0  0  0  0  0  0  0  0  0
    6.0622   -0.0000   -0.0000 O   0  0  0  0  0  0  0  0  0  0  0  0
    4.3301   -0.0000   -0.0000 C   0  0  0  0  0  0  0  0  0  0  0  0
    6.0622    1.0000   -0.0000 C   0  0  0  0  0  0  0  0  0  0  0  0
    3.4641   -0.5000   -0.0000 C   0  0  0  0  0  0  0  0  0  0  0  0
    4.3301    1.0000   -0.0000 C   0  0  0  0  0  0  0  0  0  0  0  0
    5.1962    1.5000   -0.0000 C   0  0  0  0  0  0  0  0  0  0  0  0
    6.9282    1.5000   -0.0000 C   0  0  0  0  0  0  0  0  0  0  0  0
    3.4641   -1.5000   -0.0000 O   0  0  0  0  0  0  0  0  0  0  0  0
    2.5981   -0.0000   -0.0000 N   0  0  0  0  0  0  0  0  0  0  0  0
    5.1962    2.5000   -0.0000 C   0  0  0  0  0  0  0  0  0  0  0  0
    6.9282    2.5000   -0.0000 C   0  0  0  0  0  0  0  0  0  0  0  0
    1.7321   -0.5000   -0.0000 N   0  0  0  0  0  0  0  0  0  0  0  0
    6.0622    3.0000   -0.0000 C   0  0  0  0  0  0  0  0  0  0  0  0
    0.8660   -0.0000   -0.0000 C   0  0  0  0  0  0  0  0  0  0  0  0
    0.0000   -0.5000   -0.0000 C   0  0  0  0  0  0  0  0  0  0  0  0
   -0.8660    0.0000   -0.0000 C   0  0  0  0  0  0  0  0  0  0  0  0
   -0.0000   -1.5000   -0.0000 C   0  0  0  0  0  0  0  0  0  0  0  0
   -1.7321   -0.5000   -0.0000 C   0  0  0  0  0  0  0  0  0  0  0  0
   -0.8660    1.0000   -0.0000 C   0  0  0  0  0  0  0  0  0  0  0  0
   -0.8660   -2.0000   -0.0000 C   0  0  0  0  0  0  0  0  0  0  0  0
   -1.7321   -1.5000   -0.0000 C   0  0  0  0  0  0  0  0  0  0  0  0
  1  2  2  0  0  0  0
  2  3  1  0  0  0  0
  2  4  1  0  0  0  0
  3  5  1  0  0  0  0
  4  6  1  0  0  0  0
  4  7  2  0  0  0  0
  5  8  2  0  0  0  0
  5  9  1  0  0  0  0
  6 10  2  0  0  0  0
  6 11  1  0  0  0  0
  8 12  1  0  0  0  0
  9 13  2  0  0  0  0
 11 14  1  0  0  0  0
 12 15  2  0  0  0  0
 14 16  2  0  0  0  0
 16 17  1  0  0  0  0
 17 18  2  0  0  0  0
 17 19  1  0  0  0  0
 18 20  1  0  0  0  0
 18 21  1  0  0  0  0
 19 22  2  0  0  0  0
 20 23  2  0  0  0  0
  7  8  1  0  0  0  0
 13 15  1  0  0  0  0
 22 23  1  0  0  0  0
M  END
>  <S/N>
489

>  <Compound ID>
C_506

>  <PubChem CID>
155536686

>  <Isomeric SMILES>
CC1=CC=CC=C1/C=N/NC(=O)C2=CC3=CC=CC=C3OC2=O

>  <IC50 (�M)>
1.1

>  <pIC50>
5.96

$$$$
C_507
Actelion Java MolfileCreator 1.0

 36 40  0  0  0  0  0  0  0  0999 V2000
    6.9872   -7.1837   -0.0000 O   0  0  0  0  0  0  0  0  0  0  0  0
    5.9927   -7.0792   -0.0000 C   0  0  0  0  0  0  0  0  0  0  0  0
    5.5859   -6.1656   -0.0000 C   0  0  0  0  0  0  0  0  0  0  0  0
    5.4049   -7.8882   -0.0000 C   0  0  0  0  0  0  0  0  0  0  0  0
    4.5914   -6.0611   -0.0000 C   0  0  0  0  0  0  0  0  0  0  0  0
    6.1737   -5.3566   -0.0000 C   0  0  0  0  0  0  0  0  0  0  0  0
    4.4104   -7.7837   -0.0000 C   0  0  0  0  0  0  0  0  0  0  0  0
    5.8116   -8.8017   -0.0000 C   0  0  0  0  0  0  0  0  0  0  0  0
    4.0036   -6.8701   -0.0000 O   0  0  0  0  0  0  0  0  0  0  0  0
    4.1847   -5.1476   -0.0000 C   0  0  0  0  0  0  0  0  0  0  0  0
    7.1682   -5.4611   -0.0000 O   0  0  0  0  0  0  0  0  0  0  0  0
    5.7670   -4.4431   -0.0000 C   0  0  0  0  0  0  0  0  0  0  0  0
    3.8226   -8.5927   -0.0000 C   0  0  0  0  0  0  0  0  0  0  0  0
    5.2238   -9.6108   -0.0000 C   0  0  0  0  0  0  0  0  0  0  0  0
    4.7725   -4.3385   -0.0000 C   0  0  0  0  0  0  0  0  0  0  0  0
    4.2293   -9.5062   -0.0000 C   0  0  0  0  0  0  0  0  0  0  0  0
    5.6306  -10.5243   -0.0000 O   0  0  0  0  0  0  0  0  0  0  0  0
    4.3657   -3.4250   -0.0000 O   0  0  0  0  0  0  0  0  0  0  0  0
    4.9535   -2.6160   -0.0000 C   0  0  0  0  0  0  0  0  0  0  0  0
    4.5468   -1.7024   -0.0000 C   0  0  0  0  0  0  0  0  0  0  0  0
    5.0468   -0.8364   -0.0000 N   0  0  0  0  0  0  0  0  0  0  0  0
    3.5686   -1.4945   -0.0000 C   0  0  0  0  0  0  0  0  0  0  0  0
    4.3776   -0.0933   -0.0000 N   0  0  0  0  0  0  0  0  0  0  0  0
    3.4641   -0.5000   -0.0000 N   0  0  0  0  0  0  0  0  0  0  0  0
    2.5981   -0.0000   -0.0000 C   0  0  0  0  0  0  0  0  0  0  0  0
    1.7321   -0.5000   -0.0000 C   0  0  0  0  0  0  0  0  0  0  0  0
    1.7321   -1.5000   -0.0000 O   0  0  0  0  0  0  0  0  0  0  0  0
    0.8660   -0.0000   -0.0000 N   0  0  0  0  0  0  0  0  0  0  0  0
    0.0000   -0.5000   -0.0000 C   0  0  0  0  0  0  0  0  0  0  0  0
   -0.8660    0.0000   -0.0000 C   0  0  0  0  0  0  0  0  0  0  0  0
   -0.0000   -1.5000   -0.0000 C   0  0  0  0  0  0  0  0  0  0  0  0
   -1.7321   -0.5000   -0.0000 C   0  0  0  0  0  0  0  0  0  0  0  0
   -0.8660   -2.0000   -0.0000 C   0  0  0  0  0  0  0  0  0  0  0  0
   -2.5981    0.0000   -0.0000 O   0  0  0  0  0  0  0  0  0  0  0  0
   -1.7321   -1.5000   -0.0000 C   0  0  0  0  0  0  0  0  0  0  0  0
   -2.5981   -2.0000   -0.0000 O   0  0  0  0  0  0  0  0  0  0  0  0
  1  2  2  0  0  0  0
  2  3  1  0  0  0  0
  2  4  1  0  0  0  0
  3  5  2  0  0  0  0
  3  6  1  0  0  0  0
  4  7  2  0  0  0  0
  4  8  1  0  0  0  0
  5  9  1  0  0  0  0
  5 10  1  0  0  0  0
  6 11  1  0  0  0  0
  6 12  2  0  0  0  0
  7 13  1  0  0  0  0
  8 14  2  0  0  0  0
 10 15  2  0  0  0  0
 13 16  2  0  0  0  0
 14 17  1  0  0  0  0
 15 18  1  0  0  0  0
 18 19  1  0  0  0  0
 19 20  1  0  0  0  0
 20 21  1  0  0  0  0
 20 22  2  0  0  0  0
 21 23  2  0  0  0  0
 22 24  1  0  0  0  0
 24 25  1  0  0  0  0
 25 26  1  0  0  0  0
 26 27  2  0  0  0  0
 26 28  1  0  0  0  0
 28 29  1  0  0  0  0
 29 30  2  0  0  0  0
 29 31  1  0  0  0  0
 30 32  1  0  0  0  0
 31 33  2  0  0  0  0
 32 34  1  0  0  0  0
 32 35  2  0  0  0  0
 35 36  1  0  0  0  0
  7  9  1  0  0  0  0
 12 15  1  0  0  0  0
 14 16  1  0  0  0  0
 23 24  1  0  0  0  0
 33 35  1  0  0  0  0
M  END
>  <S/N>
490

>  <Compound ID>
C_507

>  <PubChem CID>
155537150

>  <Isomeric SMILES>
C1=CC(=C(C=C1NC(=O)CN2C=C(N=N2)COC3=CC(=C4C(=C3)OC5=C(C4=O)C=C(C=C5)O)O)O)O

>  <IC50 (�M)>
7.06

>  <pIC50>
5.15

$$$$
C_508
Actelion Java MolfileCreator 1.0

 26 29  0  0  1  0  0  0  0  0999 V2000
    2.5981    1.0000   -0.0000 O   0  0  0  0  0  0  0  0  0  0  0  0
    2.5981   -0.0000   -0.0000 C   0  0  0  0  0  0  0  0  0  0  0  0
    3.4641   -0.5000   -0.0000 C   0  0  0  0  0  0  0  0  0  0  0  0
    1.7321   -0.5000   -0.0000 C   0  0  0  0  0  0  0  0  0  0  0  0
    4.3301    0.0000   -0.0000 C   0  0  0  0  0  0  0  0  0  0  0  0
    3.4641   -1.5000   -0.0000 C   0  0  0  0  0  0  0  0  0  0  0  0
    0.8660   -0.0000   -0.0000 C   0  0  0  0  0  0  0  0  0  0  0  0
    5.1962   -0.5000   -0.0000 C   0  0  0  0  0  0  0  0  0  0  0  0
    4.3301   -2.0000   -0.0000 C   0  0  0  0  0  0  0  0  0  0  0  0
    0.8660    1.0000   -0.0000 C   0  0  0  0  0  0  0  0  0  0  0  0
    0.0000   -0.5000   -0.0000 C   0  0  0  0  0  0  0  0  0  0  0  0
    5.1962   -1.5000   -0.0000 C   0  0  0  0  0  0  0  0  0  0  0  0
   -0.0000    1.5000   -0.0000 C   0  0  0  0  0  0  0  0  0  0  0  0
    1.7321    1.5000   -0.0000 C   0  0  0  0  0  0  0  0  0  0  0  0
   -0.9135   -0.0933   -0.0000 C   0  0  0  0  0  0  0  0  0  0  0  0
   -0.1045   -1.4945   -0.0000 C   0  0  0  0  0  0  0  0  0  0  0  0
   -0.0000    2.5000   -0.0000 C   0  0  0  0  0  0  0  0  0  0  0  0
    1.7321    2.5000   -0.0000 C   0  0  0  0  0  0  0  0  0  0  0  0
   -1.5827   -0.8364   -0.0000 C   0  0  0  0  0  0  0  0  0  0  0  0
   -1.2226    0.8578   -0.0000 C   0  0  0  0  0  0  0  0  0  0  0  0
   -1.0827   -1.7024   -0.0000 N   0  0  0  0  0  0  0  0  0  0  0  0
    0.8660    3.0000   -0.0000 C   0  0  0  0  0  0  0  0  0  0  0  0
   -0.8660    3.0000   -0.0000 C   0  0  0  0  0  0  0  0  0  0  0  0
   -2.5608   -0.6285   -0.0000 C   0  0  0  0  0  0  0  0  0  0  0  0
   -2.2007    1.0657   -0.0000 C   0  0  0  0  0  0  0  0  0  0  0  0
   -2.8698    0.3226   -0.0000 C   0  0  0  0  0  0  0  0  0  0  0  0
  1  2  2  0  0  0  0
  2  3  1  0  0  0  0
  2  4  1  0  0  0  0
  3  5  2  0  0  0  0
  3  6  1  0  0  0  0
  7  4  1  6  0  0  0
  5  8  1  0  0  0  0
  6  9  2  0  0  0  0
  7 10  1  0  0  0  0
  7 11  1  0  0  0  0
  8 12  2  0  0  0  0
 10 13  2  0  0  0  0
 10 14  1  0  0  0  0
 11 15  1  0  0  0  0
 11 16  2  0  0  0  0
 13 17  1  0  0  0  0
 14 18  2  0  0  0  0
 15 19  2  0  0  0  0
 15 20  1  0  0  0  0
 16 21  1  0  0  0  0
 17 22  2  0  0  0  0
 17 23  1  0  0  0  0
 19 24  1  0  0  0  0
 20 25  2  0  0  0  0
 24 26  2  0  0  0  0
  9 12  1  0  0  0  0
 18 22  1  0  0  0  0
 19 21  1  0  0  0  0
 25 26  1  0  0  0  0
M  END
>  <S/N>
491

>  <Compound ID>
C_508

>  <PubChem CID>
155537256

>  <Isomeric SMILES>
CC1=CC(=CC=C1)[C@H](CC(=O)C2=CC=CC=C2)C3=CNC4=CC=CC=C43

>  <IC50 (�M)>
4.3

>  <pIC50>
5.37

$$$$
C_509
Actelion Java MolfileCreator 1.0

 25 27  0  0  0  0  0  0  0  0999 V2000
    5.1962   -1.5000   -0.0000 O   0  0  0  0  0  0  0  0  0  0  0  0
    5.1962   -0.5000   -0.0000 C   0  0  0  0  0  0  0  0  0  0  0  0
    6.0622   -0.0000   -0.0000 O   0  0  0  0  0  0  0  0  0  0  0  0
    4.3301   -0.0000   -0.0000 C   0  0  0  0  0  0  0  0  0  0  0  0
    6.0622    1.0000   -0.0000 C   0  0  0  0  0  0  0  0  0  0  0  0
    3.4641   -0.5000   -0.0000 C   0  0  0  0  0  0  0  0  0  0  0  0
    4.3301    1.0000   -0.0000 C   0  0  0  0  0  0  0  0  0  0  0  0
    5.1962    1.5000   -0.0000 C   0  0  0  0  0  0  0  0  0  0  0  0
    6.9282    1.5000   -0.0000 C   0  0  0  0  0  0  0  0  0  0  0  0
    3.4641   -1.5000   -0.0000 O   0  0  0  0  0  0  0  0  0  0  0  0
    2.5981   -0.0000   -0.0000 N   0  0  0  0  0  0  0  0  0  0  0  0
    5.1962    2.5000   -0.0000 C   0  0  0  0  0  0  0  0  0  0  0  0
    6.9282    2.5000   -0.0000 C   0  0  0  0  0  0  0  0  0  0  0  0
    1.7321   -0.5000   -0.0000 N   0  0  0  0  0  0  0  0  0  0  0  0
    6.0622    3.0000   -0.0000 C   0  0  0  0  0  0  0  0  0  0  0  0
    0.8660   -0.0000   -0.0000 C   0  0  0  0  0  0  0  0  0  0  0  0
    0.0000   -0.5000   -0.0000 C   0  0  0  0  0  0  0  0  0  0  0  0
   -0.8660    0.0000   -0.0000 C   0  0  0  0  0  0  0  0  0  0  0  0
   -0.0000   -1.5000   -0.0000 C   0  0  0  0  0  0  0  0  0  0  0  0
   -0.8660    1.0000   -0.0000 O   0  0  0  0  0  0  0  0  0  0  0  0
   -1.7321   -0.5000   -0.0000 C   0  0  0  0  0  0  0  0  0  0  0  0
   -0.8660   -2.0000   -0.0000 C   0  0  0  0  0  0  0  0  0  0  0  0
   -1.7321   -1.5000   -0.0000 C   0  0  0  0  0  0  0  0  0  0  0  0
   -0.8660   -3.0000   -0.0000 O   0  0  0  0  0  0  0  0  0  0  0  0
   -0.0000   -3.5000   -0.0000 C   0  0  0  0  0  0  0  0  0  0  0  0
  1  2  2  0  0  0  0
  2  3  1  0  0  0  0
  2  4  1  0  0  0  0
  3  5  1  0  0  0  0
  4  6  1  0  0  0  0
  4  7  2  0  0  0  0
  5  8  2  0  0  0  0
  5  9  1  0  0  0  0
  6 10  2  0  0  0  0
  6 11  1  0  0  0  0
  8 12  1  0  0  0  0
  9 13  2  0  0  0  0
 11 14  1  0  0  0  0
 12 15  2  0  0  0  0
 14 16  2  0  0  0  0
 16 17  1  0  0  0  0
 17 18  2  0  0  0  0
 17 19  1  0  0  0  0
 18 20  1  0  0  0  0
 18 21  1  0  0  0  0
 19 22  2  0  0  0  0
 21 23  2  0  0  0  0
 22 24  1  0  0  0  0
 24 25  1  0  0  0  0
  7  8  1  0  0  0  0
 13 15  1  0  0  0  0
 22 23  1  0  0  0  0
M  END
>  <S/N>
492

>  <Compound ID>
C_509

>  <PubChem CID>
155537292

>  <Isomeric SMILES>
COC1=CC(=C(C=C1)O)/C=N/NC(=O)C2=CC3=CC=CC=C3OC2=O

>  <IC50 (�M)>
1.1

>  <pIC50>
5.96

$$$$
C_510
Actelion Java MolfileCreator 1.0

 36 40  0  0  0  0  0  0  0  0999 V2000
    4.3370    1.8675   -0.0000 Cl  0  0  0  0  0  0  0  0  0  0  0  0
    5.7636    2.3310   -0.0000 C   0  0  0  0  0  0  0  0  0  0  0  0
    6.8783    1.3273   -0.0000 C   0  0  0  0  0  0  0  0  0  0  0  0
    6.0755    3.7982   -0.0000 C   0  0  0  0  0  0  0  0  0  0  0  0
    6.5665   -0.1399   -0.0000 N   0  0  0  0  0  0  0  0  0  0  0  0
    8.3049    1.7909   -0.0000 C   0  0  0  0  0  0  0  0  0  0  0  0
    7.5021    4.2618   -0.0000 C   0  0  0  0  0  0  0  0  0  0  0  0
    5.1962   -0.7500   -0.0000 C   0  0  0  0  0  0  0  0  0  0  0  0
    7.5702   -1.2546   -0.0000 C   0  0  0  0  0  0  0  0  0  0  0  0
    8.6168    3.2581   -0.0000 C   0  0  0  0  0  0  0  0  0  0  0  0
    5.3529   -2.2418   -0.0000 S   0  0  0  0  0  0  0  0  0  0  0  0
    3.8971   -0.0000   -0.0000 N   0  0  0  0  0  0  0  0  0  0  0  0
    9.0619   -1.0978   -0.0000 O   0  0  0  0  0  0  0  0  0  0  0  0
    6.8202   -2.5537   -0.0000 C   0  0  0  0  0  0  0  0  0  0  0  0
    2.5981   -0.7500   -0.0000 N   0  0  0  0  0  0  0  0  0  0  0  0
    7.4303   -3.9240   -0.0000 C   0  0  0  0  0  0  0  0  0  0  0  0
    1.2990   -0.0000   -0.0000 C   0  0  0  0  0  0  0  0  0  0  0  0
    6.5486   -5.1375   -0.0000 C   0  0  0  0  0  0  0  0  0  0  0  0
    1.2990    1.5000   -0.0000 O   0  0  0  0  0  0  0  0  0  0  0  0
    0.0000   -0.7500   -0.0000 C   0  0  0  0  0  0  0  0  0  0  0  0
    7.1587   -6.5078   -0.0000 C   0  0  0  0  0  0  0  0  0  0  0  0
    5.0568   -4.9807   -0.0000 C   0  0  0  0  0  0  0  0  0  0  0  0
   -1.2990    0.0000   -0.0000 C   0  0  0  0  0  0  0  0  0  0  0  0
   -0.0000   -2.2500   -0.0000 C   0  0  0  0  0  0  0  0  0  0  0  0
    6.2770   -7.7213   -0.0000 C   0  0  0  0  0  0  0  0  0  0  0  0
    4.1751   -6.1942   -0.0000 C   0  0  0  0  0  0  0  0  0  0  0  0
   -1.2990    1.5000   -0.0000 O   0  0  0  0  0  0  0  0  0  0  0  0
   -2.5981   -0.7500   -0.0000 O   0  0  0  0  0  0  0  0  0  0  0  0
   -1.2990   -3.0000   -0.0000 C   0  0  0  0  0  0  0  0  0  0  0  0
    4.7852   -7.5645   -0.0000 C   0  0  0  0  0  0  0  0  0  0  0  0
   -2.5981   -2.2500   -0.0000 C   0  0  0  0  0  0  0  0  0  0  0  0
   -1.2990   -4.5000   -0.0000 C   0  0  0  0  0  0  0  0  0  0  0  0
    3.9036   -8.7781   -0.0000 F   0  0  0  0  0  0  0  0  0  0  0  0
   -3.8971   -3.0000   -0.0000 C   0  0  0  0  0  0  0  0  0  0  0  0
   -2.5981   -5.2500   -0.0000 C   0  0  0  0  0  0  0  0  0  0  0  0
   -3.8971   -4.5000   -0.0000 C   0  0  0  0  0  0  0  0  0  0  0  0
  1  2  1  0  0  0  0
  2  3  2  0  0  0  0
  2  4  1  0  0  0  0
  3  5  1  0  0  0  0
  3  6  1  0  0  0  0
  4  7  2  0  0  0  0
  5  8  1  0  0  0  0
  5  9  1  0  0  0  0
  6 10  2  0  0  0  0
  8 11  1  0  0  0  0
  8 12  2  0  0  0  0
  9 13  2  0  0  0  0
  9 14  1  0  0  0  0
 12 15  1  0  0  0  0
 14 16  2  0  0  0  0
 15 17  1  0  0  0  0
 16 18  1  0  0  0  0
 17 19  2  0  0  0  0
 17 20  1  0  0  0  0
 18 21  2  0  0  0  0
 18 22  1  0  0  0  0
 20 23  1  0  0  0  0
 20 24  2  0  0  0  0
 21 25  1  0  0  0  0
 22 26  2  0  0  0  0
 23 27  2  0  0  0  0
 23 28  1  0  0  0  0
 24 29  1  0  0  0  0
 25 30  2  0  0  0  0
 28 31  1  0  0  0  0
 29 32  2  0  0  0  0
 30 33  1  0  0  0  0
 31 34  2  0  0  0  0
 32 35  1  0  0  0  0
 34 36  1  0  0  0  0
  7 10  1  0  0  0  0
 11 14  1  0  0  0  0
 26 30  1  0  0  0  0
 29 31  1  0  0  0  0
 35 36  2  0  0  0  0
M  END
>  <S/N>
493

>  <Compound ID>
C_510

>  <PubChem CID>
155537378

>  <Isomeric SMILES>
C1=CC=C2C(=C1)C=C(C(=O)O2)C(=O)N/N=C\3/N(C(=O)/C(=C/C4=CC=C(C=C4)F)/S3)C5=CC=CC=C5Cl

>  <IC50 (�M)>
0.09

>  <pIC50>
7.05

$$$$
C_511
Actelion Java MolfileCreator 1.0

 42 49  0  0  0  0  0  0  0  0999 V2000
    0.8073   -3.9319   -0.0000 Cl  0  0  0  0  0  0  0  0  0  0  0  0
    1.4765   -3.1887   -0.0000 C   0  0  0  0  0  0  0  0  0  0  0  0
    1.1674   -2.2377   -0.0000 C   0  0  0  0  0  0  0  0  0  0  0  0
    2.4546   -3.3966   -0.0000 C   0  0  0  0  0  0  0  0  0  0  0  0
    1.8366   -1.4945   -0.0000 C   0  0  0  0  0  0  0  0  0  0  0  0
    3.1237   -2.6535   -0.0000 C   0  0  0  0  0  0  0  0  0  0  0  0
    2.8147   -1.7024   -0.0000 C   0  0  0  0  0  0  0  0  0  0  0  0
    1.7321   -0.5000   -0.0000 C   0  0  0  0  0  0  0  0  0  0  0  0
    3.3147   -0.8364   -0.0000 N   0  0  0  0  0  0  0  0  0  0  0  0
    2.6456   -0.0933   -0.0000 C   0  0  0  0  0  0  0  0  0  0  0  0
    0.8660   -0.0000   -0.0000 C   0  0  0  0  0  0  0  0  0  0  0  0
    0.8660    1.0000   -0.0000 C   0  0  0  0  0  0  0  0  0  0  0  0
    0.0000   -0.5000   -0.0000 C   0  0  0  0  0  0  0  0  0  0  0  0
    1.7321    1.5000   -0.0000 C   0  0  0  0  0  0  0  0  0  0  0  0
    0.0000    1.5000   -0.0000 C   0  0  0  0  0  0  0  0  0  0  0  0
   -0.9135   -0.0933   -0.0000 C   0  0  0  0  0  0  0  0  0  0  0  0
   -0.1045   -1.4945   -0.0000 C   0  0  0  0  0  0  0  0  0  0  0  0
    1.7321    2.5000   -0.0000 C   0  0  0  0  0  0  0  0  0  0  0  0
    0.0000    2.5000   -0.0000 C   0  0  0  0  0  0  0  0  0  0  0  0
   -1.5827   -0.8364   -0.0000 C   0  0  0  0  0  0  0  0  0  0  0  0
   -1.2226    0.8578   -0.0000 C   0  0  0  0  0  0  0  0  0  0  0  0
   -1.0827   -1.7024   -0.0000 N   0  0  0  0  0  0  0  0  0  0  0  0
    0.8660    3.0000   -0.0000 C   0  0  0  0  0  0  0  0  0  0  0  0
   -2.5608   -0.6285   -0.0000 C   0  0  0  0  0  0  0  0  0  0  0  0
   -2.2007    1.0657   -0.0000 C   0  0  0  0  0  0  0  0  0  0  0  0
    0.8660    4.0000   -0.0000 C   0  0  0  0  0  0  0  0  0  0  0  0
   -2.8698    0.3226   -0.0000 C   0  0  0  0  0  0  0  0  0  0  0  0
   -2.5097    2.0168   -0.0000 Cl  0  0  0  0  0  0  0  0  0  0  0  0
    1.6750    4.5878   -0.0000 O   0  0  0  0  0  0  0  0  0  0  0  0
    0.0570    4.5878   -0.0000 N   0  0  0  0  0  0  0  0  0  0  0  0
    1.3660    5.5388   -0.0000 C   0  0  0  0  0  0  0  0  0  0  0  0
    0.3660    5.5388   -0.0000 N   0  0  0  0  0  0  0  0  0  0  0  0
    1.9538    6.3479   -0.0000 C   0  0  0  0  0  0  0  0  0  0  0  0
    2.9538    6.3479   -0.0000 C   0  0  0  0  0  0  0  0  0  0  0  0
    1.6448    7.2989   -0.0000 C   0  0  0  0  0  0  0  0  0  0  0  0
    3.2628    7.2989   -0.0000 C   0  0  0  0  0  0  0  0  0  0  0  0
    3.6229    5.6047   -0.0000 C   0  0  0  0  0  0  0  0  0  0  0  0
    2.4538    7.8867   -0.0000 N   0  0  0  0  0  0  0  0  0  0  0  0
    0.6937    7.6079   -0.0000 C   0  0  0  0  0  0  0  0  0  0  0  0
    4.2410    7.5068   -0.0000 C   0  0  0  0  0  0  0  0  0  0  0  0
    4.6011    5.8126   -0.0000 C   0  0  0  0  0  0  0  0  0  0  0  0
    4.9101    6.7637   -0.0000 C   0  0  0  0  0  0  0  0  0  0  0  0
  1  2  1  0  0  0  0
  2  3  2  0  0  0  0
  2  4  1  0  0  0  0
  3  5  1  0  0  0  0
  4  6  2  0  0  0  0
  5  7  2  0  0  0  0
  5  8  1  0  0  0  0
  7  9  1  0  0  0  0
  8 10  2  0  0  0  0
  8 11  1  0  0  0  0
 11 12  1  0  0  0  0
 11 13  1  0  0  0  0
 12 14  2  0  0  0  0
 12 15  1  0  0  0  0
 13 16  1  0  0  0  0
 13 17  2  0  0  0  0
 14 18  1  0  0  0  0
 15 19  2  0  0  0  0
 16 20  2  0  0  0  0
 16 21  1  0  0  0  0
 17 22  1  0  0  0  0
 18 23  2  0  0  0  0
 20 24  1  0  0  0  0
 21 25  2  0  0  0  0
 23 26  1  0  0  0  0
 24 27  2  0  0  0  0
 25 28  1  0  0  0  0
 26 29  1  0  0  0  0
 26 30  2  0  0  0  0
 29 31  1  0  0  0  0
 30 32  1  0  0  0  0
 31 33  1  0  0  0  0
 33 34  1  0  0  0  0
 33 35  2  0  0  0  0
 34 36  2  0  0  0  0
 34 37  1  0  0  0  0
 35 38  1  0  0  0  0
 35 39  1  0  0  0  0
 36 40  1  0  0  0  0
 37 41  2  0  0  0  0
 40 42  2  0  0  0  0
  6  7  1  0  0  0  0
  9 10  1  0  0  0  0
 19 23  1  0  0  0  0
 20 22  1  0  0  0  0
 25 27  1  0  0  0  0
 31 32  2  0  0  0  0
 36 38  1  0  0  0  0
 41 42  1  0  0  0  0
M  END
>  <S/N>
494

>  <Compound ID>
C_511

>  <PubChem CID>
155537531

>  <Isomeric SMILES>
CC1=C(C2=CC=CC=C2N1)C3=NN=C(O3)C4=CC=C(C=C4)C(C5=CNC6=C5C=C(C=C6)Cl)C7=CNC8=C7C=C(C=C8)Cl

>  <IC50 (�M)>
20

>  <pIC50>
4.7

$$$$
C_512
Actelion Java MolfileCreator 1.0

 25 28  0  0  0  0  0  0  0  0999 V2000
    4.8132   -3.2132   -0.0000 Cl  0  0  0  0  0  0  0  0  0  0  0  0
    5.4010   -2.4042   -0.0000 C   0  0  0  0  0  0  0  0  0  0  0  0
    6.3955   -2.5088   -0.0000 C   0  0  0  0  0  0  0  0  0  0  0  0
    4.9942   -1.4907   -0.0000 C   0  0  0  0  0  0  0  0  0  0  0  0
    6.9833   -1.6997   -0.0000 C   0  0  0  0  0  0  0  0  0  0  0  0
    5.5820   -0.6817   -0.0000 C   0  0  0  0  0  0  0  0  0  0  0  0
    7.9778   -1.8043   -0.0000 Cl  0  0  0  0  0  0  0  0  0  0  0  0
    6.5765   -0.7862   -0.0000 C   0  0  0  0  0  0  0  0  0  0  0  0
    5.1753    0.2319   -0.0000 C   0  0  0  0  0  0  0  0  0  0  0  0
    4.1808    0.3364   -0.0000 N   0  0  0  0  0  0  0  0  0  0  0  0
    3.6808    1.2024   -0.0000 N   0  0  0  0  0  0  0  0  0  0  0  0
    3.5116   -0.4067   -0.0000 C   0  0  0  0  0  0  0  0  0  0  0  0
    2.7026    0.9945   -0.0000 N   0  0  0  0  0  0  0  0  0  0  0  0
    2.5981   -0.0000   -0.0000 C   0  0  0  0  0  0  0  0  0  0  0  0
    1.7321   -0.5000   -0.0000 C   0  0  0  0  0  0  0  0  0  0  0  0
    0.8660   -0.0000   -0.0000 S   0  0  0  0  0  0  0  0  0  0  0  0
    0.0000   -0.5000   -0.0000 C   0  0  0  0  0  0  0  0  0  0  0  0
   -0.9135   -0.0933   -0.0000 S   0  0  0  0  0  0  0  0  0  0  0  0
   -0.1045   -1.4945   -0.0000 N   0  0  0  0  0  0  0  0  0  0  0  0
   -1.5827   -0.8364   -0.0000 C   0  0  0  0  0  0  0  0  0  0  0  0
   -1.0827   -1.7024   -0.0000 C   0  0  0  0  0  0  0  0  0  0  0  0
   -2.5827   -0.8364   -0.0000 C   0  0  0  0  0  0  0  0  0  0  0  0
   -1.5827   -2.5685   -0.0000 C   0  0  0  0  0  0  0  0  0  0  0  0
   -3.0827   -1.7024   -0.0000 C   0  0  0  0  0  0  0  0  0  0  0  0
   -2.5827   -2.5685   -0.0000 C   0  0  0  0  0  0  0  0  0  0  0  0
  1  2  1  0  0  0  0
  2  3  2  0  0  0  0
  2  4  1  0  0  0  0
  3  5  1  0  0  0  0
  4  6  2  0  0  0  0
  5  7  1  0  0  0  0
  5  8  2  0  0  0  0
  6  9  1  0  0  0  0
  9 10  1  0  0  0  0
 10 11  1  0  0  0  0
 10 12  1  0  0  0  0
 11 13  2  0  0  0  0
 12 14  2  0  0  0  0
 14 15  1  0  0  0  0
 15 16  1  0  0  0  0
 16 17  1  0  0  0  0
 17 18  1  0  0  0  0
 17 19  2  0  0  0  0
 18 20  1  0  0  0  0
 19 21  1  0  0  0  0
 20 22  2  0  0  0  0
 21 23  2  0  0  0  0
 22 24  1  0  0  0  0
 23 25  1  0  0  0  0
  6  8  1  0  0  0  0
 13 14  1  0  0  0  0
 20 21  1  0  0  0  0
 24 25  2  0  0  0  0
M  END
>  <S/N>
495

>  <Compound ID>
C_512

>  <PubChem CID>
155537893

>  <Isomeric SMILES>
C1=CC=C2C(=C1)N=C(S2)SCC3=CN(N=N3)CC4=CC(=CC(=C4)Cl)Cl

>  <IC50 (�M)>
20

>  <pIC50>
4.7

$$$$
C_513
Actelion Java MolfileCreator 1.0

 25 27  0  0  0  0  0  0  0  0999 V2000
    5.1962   -1.5000   -0.0000 O   0  0  0  0  0  0  0  0  0  0  0  0
    5.1962   -0.5000   -0.0000 C   0  0  0  0  0  0  0  0  0  0  0  0
    6.0622   -0.0000   -0.0000 O   0  0  0  0  0  0  0  0  0  0  0  0
    4.3301   -0.0000   -0.0000 C   0  0  0  0  0  0  0  0  0  0  0  0
    6.0622    1.0000   -0.0000 C   0  0  0  0  0  0  0  0  0  0  0  0
    3.4641   -0.5000   -0.0000 C   0  0  0  0  0  0  0  0  0  0  0  0
    4.3301    1.0000   -0.0000 C   0  0  0  0  0  0  0  0  0  0  0  0
    5.1962    1.5000   -0.0000 C   0  0  0  0  0  0  0  0  0  0  0  0
    6.9282    1.5000   -0.0000 C   0  0  0  0  0  0  0  0  0  0  0  0
    3.4641   -1.5000   -0.0000 O   0  0  0  0  0  0  0  0  0  0  0  0
    2.5981   -0.0000   -0.0000 N   0  0  0  0  0  0  0  0  0  0  0  0
    5.1962    2.5000   -0.0000 C   0  0  0  0  0  0  0  0  0  0  0  0
    6.9282    2.5000   -0.0000 C   0  0  0  0  0  0  0  0  0  0  0  0
    1.7321   -0.5000   -0.0000 N   0  0  0  0  0  0  0  0  0  0  0  0
    6.0622    3.0000   -0.0000 C   0  0  0  0  0  0  0  0  0  0  0  0
    0.8660   -0.0000   -0.0000 C   0  0  0  0  0  0  0  0  0  0  0  0
    0.0000   -0.5000   -0.0000 C   0  0  0  0  0  0  0  0  0  0  0  0
   -0.8660    0.0000   -0.0000 C   0  0  0  0  0  0  0  0  0  0  0  0
   -0.0000   -1.5000   -0.0000 C   0  0  0  0  0  0  0  0  0  0  0  0
   -0.8660    1.0000   -0.0000 O   0  0  0  0  0  0  0  0  0  0  0  0
   -1.7321   -0.5000   -0.0000 C   0  0  0  0  0  0  0  0  0  0  0  0
   -0.8660   -2.0000   -0.0000 C   0  0  0  0  0  0  0  0  0  0  0  0
   -1.7321   -1.5000   -0.0000 C   0  0  0  0  0  0  0  0  0  0  0  0
   -2.5981   -2.0000   -0.0000 O   0  0  0  0  0  0  0  0  0  0  0  0
   -2.5981   -3.0000   -0.0000 C   0  0  0  0  0  0  0  0  0  0  0  0
  1  2  2  0  0  0  0
  2  3  1  0  0  0  0
  2  4  1  0  0  0  0
  3  5  1  0  0  0  0
  4  6  1  0  0  0  0
  4  7  2  0  0  0  0
  5  8  2  0  0  0  0
  5  9  1  0  0  0  0
  6 10  2  0  0  0  0
  6 11  1  0  0  0  0
  8 12  1  0  0  0  0
  9 13  2  0  0  0  0
 11 14  1  0  0  0  0
 12 15  2  0  0  0  0
 14 16  2  0  0  0  0
 16 17  1  0  0  0  0
 17 18  2  0  0  0  0
 17 19  1  0  0  0  0
 18 20  1  0  0  0  0
 18 21  1  0  0  0  0
 19 22  2  0  0  0  0
 21 23  2  0  0  0  0
 23 24  1  0  0  0  0
 24 25  1  0  0  0  0
  7  8  1  0  0  0  0
 13 15  1  0  0  0  0
 22 23  1  0  0  0  0
M  END
>  <S/N>
496

>  <Compound ID>
C_513

>  <PubChem CID>
155537956

>  <Isomeric SMILES>
COC1=CC(=C(C=C1)/C=N/NC(=O)C2=CC3=CC=CC=C3OC2=O)O

>  <IC50 (�M)>
1.1

>  <pIC50>
5.96

$$$$
C_514
Actelion Java MolfileCreator 1.0

 44 51  0  0  0  0  0  0  0  0999 V2000
    7.8655   -2.3899   -0.0000 O   0  0  0  0  0  0  0  0  0  0  0  0
    6.4952   -3.0000   -0.0000 C   0  0  0  0  0  0  0  0  0  0  0  0
    8.8692   -3.5046   -0.0000 C   0  0  0  0  0  0  0  0  0  0  0  0
    6.6520   -4.4918   -0.0000 N   0  0  0  0  0  0  0  0  0  0  0  0
    5.1962   -2.2500   -0.0000 C   0  0  0  0  0  0  0  0  0  0  0  0
    8.1192   -4.8037   -0.0000 N   0  0  0  0  0  0  0  0  0  0  0  0
   10.3610   -3.3478   -0.0000 C   0  0  0  0  0  0  0  0  0  0  0  0
    5.1962   -0.7500   -0.0000 C   0  0  0  0  0  0  0  0  0  0  0  0
    3.8971   -3.0000   -0.0000 C   0  0  0  0  0  0  0  0  0  0  0  0
   11.3647   -4.4625   -0.0000 C   0  0  0  0  0  0  0  0  0  0  0  0
   11.1110   -2.0488   -0.0000 C   0  0  0  0  0  0  0  0  0  0  0  0
    3.8971    0.0000   -0.0000 C   0  0  0  0  0  0  0  0  0  0  0  0
    2.5981   -2.2500   -0.0000 C   0  0  0  0  0  0  0  0  0  0  0  0
   12.7350   -3.8524   -0.0000 C   0  0  0  0  0  0  0  0  0  0  0  0
   11.2079   -5.9543   -0.0000 C   0  0  0  0  0  0  0  0  0  0  0  0
   12.5782   -2.3606   -0.0000 N   0  0  0  0  0  0  0  0  0  0  0  0
    2.5981   -0.7500   -0.0000 C   0  0  0  0  0  0  0  0  0  0  0  0
   13.9485   -4.7341   -0.0000 C   0  0  0  0  0  0  0  0  0  0  0  0
   12.4214   -6.8360   -0.0000 C   0  0  0  0  0  0  0  0  0  0  0  0
   13.6929   -1.3570   -0.0000 C   0  0  0  0  0  0  0  0  0  0  0  0
    1.2990   -0.0000   -0.0000 C   0  0  0  0  0  0  0  0  0  0  0  0
   13.7917   -6.2259   -0.0000 C   0  0  0  0  0  0  0  0  0  0  0  0
    1.2990    1.5000   -0.0000 C   0  0  0  0  0  0  0  0  0  0  0  0
    0.0000   -0.7500   -0.0000 C   0  0  0  0  0  0  0  0  0  0  0  0
    2.5126    2.3817   -0.0000 C   0  0  0  0  0  0  0  0  0  0  0  0
    0.0855    2.3817   -0.0000 C   0  0  0  0  0  0  0  0  0  0  0  0
   -1.3703   -0.1399   -0.0000 C   0  0  0  0  0  0  0  0  0  0  0  0
   -0.1568   -2.2418   -0.0000 C   0  0  0  0  0  0  0  0  0  0  0  0
    2.0490    3.8083   -0.0000 C   0  0  0  0  0  0  0  0  0  0  0  0
    3.9798    2.0698   -0.0000 C   0  0  0  0  0  0  0  0  0  0  0  0
    0.5490    3.8083   -0.0000 N   0  0  0  0  0  0  0  0  0  0  0  0
   -2.3740   -1.2546   -0.0000 C   0  0  0  0  0  0  0  0  0  0  0  0
   -1.8338    1.2867   -0.0000 C   0  0  0  0  0  0  0  0  0  0  0  0
   -1.6240   -2.5537   -0.0000 N   0  0  0  0  0  0  0  0  0  0  0  0
    3.0527    4.9230   -0.0000 C   0  0  0  0  0  0  0  0  0  0  0  0
    4.9835    3.1845   -0.0000 C   0  0  0  0  0  0  0  0  0  0  0  0
   -3.8412   -0.9427   -0.0000 C   0  0  0  0  0  0  0  0  0  0  0  0
   -3.3011    1.5986   -0.0000 C   0  0  0  0  0  0  0  0  0  0  0  0
    4.5200    4.6111   -0.0000 C   0  0  0  0  0  0  0  0  0  0  0  0
    6.4507    2.8727   -0.0000 C   0  0  0  0  0  0  0  0  0  0  0  0
   -4.3048    0.4838   -0.0000 C   0  0  0  0  0  0  0  0  0  0  0  0
   -3.7646    3.0251   -0.0000 C   0  0  0  0  0  0  0  0  0  0  0  0
    7.9179    2.5608   -0.0000 N   0  0  0  0  0  0  0  0  0  0  0  0
   -4.2281    4.4517   -0.0000 N   0  0  0  0  0  0  0  0  0  0  0  0
  1  2  1  0  0  0  0
  1  3  1  0  0  0  0
  2  4  2  0  0  0  0
  2  5  1  0  0  0  0
  3  6  2  0  0  0  0
  3  7  1  0  0  0  0
  5  8  2  0  0  0  0
  5  9  1  0  0  0  0
  7 10  1  0  0  0  0
  7 11  2  0  0  0  0
  8 12  1  0  0  0  0
  9 13  2  0  0  0  0
 10 14  2  0  0  0  0
 10 15  1  0  0  0  0
 11 16  1  0  0  0  0
 12 17  2  0  0  0  0
 14 18  1  0  0  0  0
 15 19  2  0  0  0  0
 16 20  1  0  0  0  0
 17 21  1  0  0  0  0
 18 22  2  0  0  0  0
 21 23  1  0  0  0  0
 21 24  1  0  0  0  0
 23 25  1  0  0  0  0
 23 26  2  0  0  0  0
 24 27  1  0  0  0  0
 24 28  2  0  0  0  0
 25 29  2  0  0  0  0
 25 30  1  0  0  0  0
 26 31  1  0  0  0  0
 27 32  2  0  0  0  0
 27 33  1  0  0  0  0
 28 34  1  0  0  0  0
 29 35  1  0  0  0  0
 30 36  2  0  0  0  0
 32 37  1  0  0  0  0
 33 38  2  0  0  0  0
 35 39  2  0  0  0  0
 36 40  1  0  0  0  0
 37 41  2  0  0  0  0
 38 42  1  0  0  0  0
 40 43  3  0  0  0  0
 42 44  3  0  0  0  0
  4  6  1  0  0  0  0
 13 17  1  0  0  0  0
 14 16  1  0  0  0  0
 19 22  1  0  0  0  0
 29 31  1  0  0  0  0
 32 34  1  0  0  0  0
 36 39  1  0  0  0  0
 38 41  1  0  0  0  0
M  END
>  <S/N>
497

>  <Compound ID>
C_514

>  <PubChem CID>
155538044

>  <Isomeric SMILES>
CN1C=C(C2=CC=CC=C21)C3=NN=C(O3)C4=CC=C(C=C4)C(C5=CNC6=C5C=C(C=C6)C#N)C7=CNC8=C7C=C(C=C8)C#N

>  <IC50 (�M)>
20

>  <pIC50>
4.7

$$$$
C_515
Actelion Java MolfileCreator 1.0

 23 25  0  0  0  0  0  0  0  0999 V2000
   -0.4063    5.5249   -0.0000 Cl  0  0  0  0  0  0  0  0  0  0  0  0
    0.7121    4.5178   -0.0000 C   0  0  0  0  0  0  0  0  0  0  0  0
    0.3992    3.0457   -0.0000 C   0  0  0  0  0  0  0  0  0  0  0  0
    2.1434    4.9829   -0.0000 C   0  0  0  0  0  0  0  0  0  0  0  0
   -1.0321    2.5807   -0.0000 Cl  0  0  0  0  0  0  0  0  0  0  0  0
    1.5342    2.0799   -0.0000 C   0  0  0  0  0  0  0  0  0  0  0  0
    3.2619    3.9759   -0.0000 C   0  0  0  0  0  0  0  0  0  0  0  0
    2.9490    2.5038   -0.0000 C   0  0  0  0  0  0  0  0  0  0  0  0
    4.6932    4.4409   -0.0000 Cl  0  0  0  0  0  0  0  0  0  0  0  0
    4.0674    1.4967   -0.0000 N   0  0  0  0  0  0  0  0  0  0  0  0
    3.9101   -0.0000   -0.0000 C   0  0  0  0  0  0  0  0  0  0  0  0
    5.5395    1.8096   -0.0000 C   0  0  0  0  0  0  0  0  0  0  0  0
    5.2849   -0.6121   -0.0000 S   0  0  0  0  0  0  0  0  0  0  0  0
    2.6067   -0.7525   -0.0000 N   0  0  0  0  0  0  0  0  0  0  0  0
    6.2920    0.5063   -0.0000 C   0  0  0  0  0  0  0  0  0  0  0  0
    6.1516    3.1845   -0.0000 C   0  0  0  0  0  0  0  0  0  0  0  0
    1.3034   -0.0000   -0.0000 C   0  0  0  0  0  0  0  0  0  0  0  0
    1.2703    1.4227   -0.0000 O   0  0  0  0  0  0  0  0  0  0  0  0
   -0.0000   -0.7525   -0.0000 C   0  0  0  0  0  0  0  0  0  0  0  0
   -1.3749   -0.1404   -0.0000 O   0  0  0  0  0  0  0  0  0  0  0  0
   -0.1573   -2.2492   -0.0000 C   0  0  0  0  0  0  0  0  0  0  0  0
   -2.3819   -1.2588   -0.0000 C   0  0  0  0  0  0  0  0  0  0  0  0
   -1.6294   -2.5621   -0.0000 C   0  0  0  0  0  0  0  0  0  0  0  0
  1  2  1  0  0  0  0
  2  3  2  0  0  0  0
  2  4  1  0  0  0  0
  3  5  1  0  0  0  0
  3  6  1  0  0  0  0
  4  7  2  0  0  0  0
  6  8  2  0  0  0  0
  7  9  1  0  0  0  0
  8 10  1  0  0  0  0
 10 11  1  0  0  0  0
 10 12  1  0  0  0  0
 11 13  1  0  0  0  0
 11 14  2  3  0  0  0
 12 15  2  0  0  0  0
 12 16  1  0  0  0  0
 14 17  1  0  0  0  0
 17 18  2  0  0  0  0
 17 19  1  0  0  0  0
 19 20  1  0  0  0  0
 19 21  2  0  0  0  0
 20 22  1  0  0  0  0
 21 23  1  0  0  0  0
  7  8  1  0  0  0  0
 13 15  1  0  0  0  0
 22 23  2  0  0  0  0
M  END
>  <S/N>
498

>  <Compound ID>
C_515

>  <PubChem CID>
155538053

>  <Isomeric SMILES>
CC1=CSC(=NC(=O)C2=CC=CO2)N1C3=CC(=C(C=C3Cl)Cl)Cl

>  <IC50 (�M)>
0.1

>  <pIC50>
7

$$$$
C_516
Actelion Java MolfileCreator 1.0

 41 45  0  0  0  0  0  0  0  0999 V2000
    9.9708   -7.4973   -0.0000 Br  0  0  0  0  0  0  0  0  0  0  0  0
    8.9762   -7.3928   -0.0000 C   0  0  0  0  0  0  0  0  0  0  0  0
    8.5695   -6.4792   -0.0000 C   0  0  0  0  0  0  0  0  0  0  0  0
    8.3885   -8.2018   -0.0000 C   0  0  0  0  0  0  0  0  0  0  0  0
    7.5750   -6.3747   -0.0000 C   0  0  0  0  0  0  0  0  0  0  0  0
    7.3939   -8.0973   -0.0000 C   0  0  0  0  0  0  0  0  0  0  0  0
    7.1682   -5.4611   -0.0000 O   0  0  0  0  0  0  0  0  0  0  0  0
    6.9872   -7.1837   -0.0000 C   0  0  0  0  0  0  0  0  0  0  0  0
    6.1737   -5.3566   -0.0000 C   0  0  0  0  0  0  0  0  0  0  0  0
    5.9927   -7.0792   -0.0000 C   0  0  0  0  0  0  0  0  0  0  0  0
    5.5859   -6.1656   -0.0000 C   0  0  0  0  0  0  0  0  0  0  0  0
    5.7670   -4.4431   -0.0000 C   0  0  0  0  0  0  0  0  0  0  0  0
    5.4049   -7.8882   -0.0000 O   0  0  0  0  0  0  0  0  0  0  0  0
    4.5914   -6.0611   -0.0000 C   0  0  0  0  0  0  0  0  0  0  0  0
    4.7725   -4.3385   -0.0000 C   0  0  0  0  0  0  0  0  0  0  0  0
    4.0036   -6.8701   -0.0000 O   0  0  0  0  0  0  0  0  0  0  0  0
    4.1847   -5.1476   -0.0000 C   0  0  0  0  0  0  0  0  0  0  0  0
    4.3657   -3.4250   -0.0000 O   0  0  0  0  0  0  0  0  0  0  0  0
    3.0091   -6.7656   -0.0000 C   0  0  0  0  0  0  0  0  0  0  0  0
    4.9535   -2.6160   -0.0000 C   0  0  0  0  0  0  0  0  0  0  0  0
    2.6024   -5.8520   -0.0000 O   0  0  0  0  0  0  0  0  0  0  0  0
    2.4213   -7.5746   -0.0000 C   0  0  0  0  0  0  0  0  0  0  0  0
    4.5468   -1.7024   -0.0000 C   0  0  0  0  0  0  0  0  0  0  0  0
    5.0468   -0.8364   -0.0000 N   0  0  0  0  0  0  0  0  0  0  0  0
    3.5686   -1.4945   -0.0000 C   0  0  0  0  0  0  0  0  0  0  0  0
    4.3776   -0.0933   -0.0000 N   0  0  0  0  0  0  0  0  0  0  0  0
    3.4641   -0.5000   -0.0000 N   0  0  0  0  0  0  0  0  0  0  0  0
    2.5981   -0.0000   -0.0000 C   0  0  0  0  0  0  0  0  0  0  0  0
    1.7321   -0.5000   -0.0000 C   0  0  0  0  0  0  0  0  0  0  0  0
    1.7321   -1.5000   -0.0000 O   0  0  0  0  0  0  0  0  0  0  0  0
    0.8660   -0.0000   -0.0000 N   0  0  0  0  0  0  0  0  0  0  0  0
    0.0000   -0.5000   -0.0000 C   0  0  0  0  0  0  0  0  0  0  0  0
   -0.8660    0.0000   -0.0000 C   0  0  0  0  0  0  0  0  0  0  0  0
   -0.0000   -1.5000   -0.0000 C   0  0  0  0  0  0  0  0  0  0  0  0
   -1.7321   -0.5000   -0.0000 C   0  0  0  0  0  0  0  0  0  0  0  0
   -0.8660   -2.0000   -0.0000 C   0  0  0  0  0  0  0  0  0  0  0  0
   -2.5981    0.0000   -0.0000 O   0  0  0  0  0  0  0  0  0  0  0  0
   -1.7321   -1.5000   -0.0000 C   0  0  0  0  0  0  0  0  0  0  0  0
   -3.4641   -0.5000   -0.0000 C   0  0  0  0  0  0  0  0  0  0  0  0
   -2.5981   -2.0000   -0.0000 O   0  0  0  0  0  0  0  0  0  0  0  0
   -2.5981   -3.0000   -0.0000 C   0  0  0  0  0  0  0  0  0  0  0  0
  1  2  1  0  0  0  0
  2  3  2  0  0  0  0
  2  4  1  0  0  0  0
  3  5  1  0  0  0  0
  4  6  2  0  0  0  0
  5  7  1  0  0  0  0
  5  8  2  0  0  0  0
  7  9  1  0  0  0  0
  8 10  1  0  0  0  0
  9 11  2  0  0  0  0
  9 12  1  0  0  0  0
 10 13  2  0  0  0  0
 11 14  1  0  0  0  0
 12 15  2  0  0  0  0
 14 16  1  0  0  0  0
 14 17  2  0  0  0  0
 15 18  1  0  0  0  0
 16 19  1  0  0  0  0
 18 20  1  0  0  0  0
 19 21  2  0  0  0  0
 19 22  1  0  0  0  0
 20 23  1  0  0  0  0
 23 24  1  0  0  0  0
 23 25  2  0  0  0  0
 24 26  2  0  0  0  0
 25 27  1  0  0  0  0
 27 28  1  0  0  0  0
 28 29  1  0  0  0  0
 29 30  2  0  0  0  0
 29 31  1  0  0  0  0
 31 32  1  0  0  0  0
 32 33  2  0  0  0  0
 32 34  1  0  0  0  0
 33 35  1  0  0  0  0
 34 36  2  0  0  0  0
 35 37  1  0  0  0  0
 35 38  2  0  0  0  0
 37 39  1  0  0  0  0
 38 40  1  0  0  0  0
 40 41  1  0  0  0  0
  6  8  1  0  0  0  0
 10 11  1  0  0  0  0
 15 17  1  0  0  0  0
 26 27  1  0  0  0  0
 36 38  1  0  0  0  0
M  END
>  <S/N>
499

>  <Compound ID>
C_516

>  <PubChem CID>
155538463

>  <Isomeric SMILES>
CC(=O)OC1=CC(=CC2=C1C(=O)C3=C(O2)C=C(C=C3)Br)OCC4=CN(N=N4)CC(=O)NC5=CC(=C(C=C5)OC)OC

>  <IC50 (�M)>
26.11

>  <pIC50>
4.58

$$$$
C_517
Actelion Java MolfileCreator 1.0

 22 24  0  0  0  0  0  0  0  0999 V2000
    2.5981    2.2500   -0.0000 Cl  0  0  0  0  0  0  0  0  0  0  0  0
    3.8971    1.5000   -0.0000 C   0  0  0  0  0  0  0  0  0  0  0  0
    3.8971   -0.0000   -0.0000 C   0  0  0  0  0  0  0  0  0  0  0  0
    5.1962    2.2500   -0.0000 C   0  0  0  0  0  0  0  0  0  0  0  0
    5.1962   -0.7500   -0.0000 C   0  0  0  0  0  0  0  0  0  0  0  0
    2.5981   -0.7500   -0.0000 C   0  0  0  0  0  0  0  0  0  0  0  0
    6.4952    1.5000   -0.0000 C   0  0  0  0  0  0  0  0  0  0  0  0
    6.4952   -0.0000   -0.0000 C   0  0  0  0  0  0  0  0  0  0  0  0
    1.2990   -0.0000   -0.0000 N   0  0  0  0  0  0  0  0  0  0  0  0
    7.7942    2.2500   -0.0000 Cl  0  0  0  0  0  0  0  0  0  0  0  0
    0.0000   -0.7500   -0.0000 C   0  0  0  0  0  0  0  0  0  0  0  0
   -1.3703   -0.1399   -0.0000 S   0  0  0  0  0  0  0  0  0  0  0  0
   -0.1568   -2.2418   -0.0000 N   0  0  0  0  0  0  0  0  0  0  0  0
   -2.3740   -1.2546   -0.0000 C   0  0  0  0  0  0  0  0  0  0  0  0
   -1.6240   -2.5537   -0.0000 N   0  0  0  0  0  0  0  0  0  0  0  0
   -3.8658   -1.0978   -0.0000 C   0  0  0  0  0  0  0  0  0  0  0  0
   -4.4759    0.2725   -0.0000 C   0  0  0  0  0  0  0  0  0  0  0  0
   -4.7475   -2.3113   -0.0000 C   0  0  0  0  0  0  0  0  0  0  0  0
   -5.9677    0.4293   -0.0000 C   0  0  0  0  0  0  0  0  0  0  0  0
   -6.2393   -2.1546   -0.0000 C   0  0  0  0  0  0  0  0  0  0  0  0
   -6.8494   -0.7842   -0.0000 C   0  0  0  0  0  0  0  0  0  0  0  0
   -8.3411   -0.6274   -0.0000 Cl  0  0  0  0  0  0  0  0  0  0  0  0
  1  2  1  0  0  0  0
  2  3  2  0  0  0  0
  2  4  1  0  0  0  0
  3  5  1  0  0  0  0
  3  6  1  0  0  0  0
  4  7  2  0  0  0  0
  5  8  2  0  0  0  0
  6  9  2  0  0  0  0
  7 10  1  0  0  0  0
  9 11  1  0  0  0  0
 11 12  1  0  0  0  0
 11 13  2  0  0  0  0
 12 14  1  0  0  0  0
 13 15  1  0  0  0  0
 14 16  1  0  0  0  0
 16 17  2  0  0  0  0
 16 18  1  0  0  0  0
 17 19  1  0  0  0  0
 18 20  2  0  0  0  0
 19 21  2  0  0  0  0
 21 22  1  0  0  0  0
  7  8  1  0  0  0  0
 14 15  2  0  0  0  0
 20 21  1  0  0  0  0
M  END
>  <S/N>
500

>  <Compound ID>
C_517

>  <PubChem CID>
155538670

>  <Isomeric SMILES>
C1=CC(=CC=C1C2=NN=C(S2)/N=C/C3=C(C=C(C=C3)Cl)Cl)Cl

>  <IC50 (�M)>
2.3

>  <pIC50>
5.64

$$$$
C_518
Actelion Java MolfileCreator 1.0

 25 28  0  0  0  0  0  0  0  0999 V2000
    2.7026    0.9945   -0.0000 S   0  0  0  0  0  0  0  0  0  0  0  0
    2.5981   -0.0000   -0.0000 C   0  0  0  0  0  0  0  0  0  0  0  0
    3.6808    1.2024   -0.0000 C   0  0  0  0  0  0  0  0  0  0  0  0
    3.5116   -0.4067   -0.0000 N   0  0  0  0  0  0  0  0  0  0  0  0
    1.7321   -0.5000   -0.0000 N   0  0  0  0  0  0  0  0  0  0  0  0
    4.1808    0.3364   -0.0000 C   0  0  0  0  0  0  0  0  0  0  0  0
    0.8660   -0.0000   -0.0000 N   0  0  0  0  0  0  0  0  0  0  0  0
    5.1753    0.2319   -0.0000 C   0  0  0  0  0  0  0  0  0  0  0  0
    0.0000   -0.5000   -0.0000 C   0  0  0  0  0  0  0  0  0  0  0  0
    5.5820   -0.6817   -0.0000 C   0  0  0  0  0  0  0  0  0  0  0  0
    5.7631    1.0409   -0.0000 C   0  0  0  0  0  0  0  0  0  0  0  0
   -0.9135   -0.0933   -0.0000 C   0  0  0  0  0  0  0  0  0  0  0  0
   -0.1045   -1.4945   -0.0000 C   0  0  0  0  0  0  0  0  0  0  0  0
    6.5765   -0.7862   -0.0000 C   0  0  0  0  0  0  0  0  0  0  0  0
    6.7576    0.9364   -0.0000 C   0  0  0  0  0  0  0  0  0  0  0  0
   -1.1215    0.8849   -0.0000 O   0  0  0  0  0  0  0  0  0  0  0  0
   -1.5827   -0.8364   -0.0000 N   0  0  0  0  0  0  0  0  0  0  0  0
   -1.0827   -1.7024   -0.0000 C   0  0  0  0  0  0  0  0  0  0  0  0
    0.5646   -2.2377   -0.0000 C   0  0  0  0  0  0  0  0  0  0  0  0
    7.1643    0.0228   -0.0000 C   0  0  0  0  0  0  0  0  0  0  0  0
   -2.5772   -0.7319   -0.0000 C   0  0  0  0  0  0  0  0  0  0  0  0
   -1.3917   -2.6535   -0.0000 C   0  0  0  0  0  0  0  0  0  0  0  0
    0.2556   -3.1887   -0.0000 C   0  0  0  0  0  0  0  0  0  0  0  0
    8.1588   -0.0817   -0.0000 C   0  0  0  0  0  0  0  0  0  0  0  0
   -0.7226   -3.3966   -0.0000 C   0  0  0  0  0  0  0  0  0  0  0  0
  1  2  1  0  0  0  0
  1  3  1  0  0  0  0
  2  4  2  0  0  0  0
  2  5  1  0  0  0  0
  3  6  2  0  0  0  0
  5  7  2  3  0  0  0
  6  8  1  0  0  0  0
  7  9  1  0  0  0  0
  8 10  2  0  0  0  0
  8 11  1  0  0  0  0
  9 12  2  0  0  0  0
  9 13  1  0  0  0  0
 10 14  1  0  0  0  0
 11 15  2  0  0  0  0
 12 16  1  0  0  0  0
 12 17  1  0  0  0  0
 13 18  2  0  0  0  0
 13 19  1  0  0  0  0
 14 20  2  0  0  0  0
 17 21  1  0  0  0  0
 18 22  1  0  0  0  0
 19 23  2  0  0  0  0
 20 24  1  0  0  0  0
 22 25  2  0  0  0  0
  4  6  1  0  0  0  0
 15 20  1  0  0  0  0
 17 18  1  0  0  0  0
 23 25  1  0  0  0  0
M  END
>  <S/N>
501

>  <Compound ID>
C_518

>  <PubChem CID>
155538745

>  <Isomeric SMILES>
CC1=CC=C(C=C1)C2=CSC(=N2)N=NC3=C(N(C4=CC=CC=C43)C)O

>  <IC50 (�M)>
5.3

>  <pIC50>
5.28

$$$$
C_519
Actelion Java MolfileCreator 1.0

 26 29  0  0  0  0  0  0  0  0999 V2000
    2.7026    0.9945   -0.0000 S   0  0  0  0  0  0  0  0  0  0  0  0
    2.5981   -0.0000   -0.0000 C   0  0  0  0  0  0  0  0  0  0  0  0
    3.6808    1.2024   -0.0000 C   0  0  0  0  0  0  0  0  0  0  0  0
    3.5116   -0.4067   -0.0000 N   0  0  0  0  0  0  0  0  0  0  0  0
    1.7321   -0.5000   -0.0000 N   0  0  0  0  0  0  0  0  0  0  0  0
    4.1808    0.3364   -0.0000 C   0  0  0  0  0  0  0  0  0  0  0  0
    0.8660   -0.0000   -0.0000 N   0  0  0  0  0  0  0  0  0  0  0  0
    5.1753    0.2319   -0.0000 C   0  0  0  0  0  0  0  0  0  0  0  0
    0.0000   -0.5000   -0.0000 C   0  0  0  0  0  0  0  0  0  0  0  0
    5.5820   -0.6817   -0.0000 C   0  0  0  0  0  0  0  0  0  0  0  0
    5.7631    1.0409   -0.0000 C   0  0  0  0  0  0  0  0  0  0  0  0
   -0.9135   -0.0933   -0.0000 C   0  0  0  0  0  0  0  0  0  0  0  0
   -0.1045   -1.4945   -0.0000 C   0  0  0  0  0  0  0  0  0  0  0  0
    6.5765   -0.7862   -0.0000 C   0  0  0  0  0  0  0  0  0  0  0  0
    6.7576    0.9364   -0.0000 C   0  0  0  0  0  0  0  0  0  0  0  0
   -1.1215    0.8849   -0.0000 O   0  0  0  0  0  0  0  0  0  0  0  0
   -1.5827   -0.8364   -0.0000 N   0  0  0  0  0  0  0  0  0  0  0  0
   -1.0827   -1.7024   -0.0000 C   0  0  0  0  0  0  0  0  0  0  0  0
    0.5646   -2.2377   -0.0000 C   0  0  0  0  0  0  0  0  0  0  0  0
    7.1643    0.0228   -0.0000 C   0  0  0  0  0  0  0  0  0  0  0  0
   -2.5772   -0.7319   -0.0000 C   0  0  0  0  0  0  0  0  0  0  0  0
   -1.3917   -2.6535   -0.0000 C   0  0  0  0  0  0  0  0  0  0  0  0
    0.2556   -3.1887   -0.0000 C   0  0  0  0  0  0  0  0  0  0  0  0
    8.1588   -0.0817   -0.0000 O   0  0  0  0  0  0  0  0  0  0  0  0
   -0.7226   -3.3966   -0.0000 C   0  0  0  0  0  0  0  0  0  0  0  0
    8.7466    0.7273   -0.0000 C   0  0  0  0  0  0  0  0  0  0  0  0
  1  2  1  0  0  0  0
  1  3  1  0  0  0  0
  2  4  2  0  0  0  0
  2  5  1  0  0  0  0
  3  6  2  0  0  0  0
  5  7  2  3  0  0  0
  6  8  1  0  0  0  0
  7  9  1  0  0  0  0
  8 10  2  0  0  0  0
  8 11  1  0  0  0  0
  9 12  2  0  0  0  0
  9 13  1  0  0  0  0
 10 14  1  0  0  0  0
 11 15  2  0  0  0  0
 12 16  1  0  0  0  0
 12 17  1  0  0  0  0
 13 18  2  0  0  0  0
 13 19  1  0  0  0  0
 14 20  2  0  0  0  0
 17 21  1  0  0  0  0
 18 22  1  0  0  0  0
 19 23  2  0  0  0  0
 20 24  1  0  0  0  0
 22 25  2  0  0  0  0
 24 26  1  0  0  0  0
  4  6  1  0  0  0  0
 15 20  1  0  0  0  0
 17 18  1  0  0  0  0
 23 25  1  0  0  0  0
M  END
>  <S/N>
502

>  <Compound ID>
C_519

>  <PubChem CID>
155538933

>  <Isomeric SMILES>
CN1C2=CC=CC=C2C(=C1O)N=NC3=NC(=CS3)C4=CC=C(C=C4)OC

>  <IC50 (�M)>
5.3

>  <pIC50>
5.28

$$$$
C_520
Actelion Java MolfileCreator 1.0

 60 68  0  0  0  0  0  0  0  0999 V2000
    3.7195   -1.3849   -0.0000 S   0  0  0  0  0  0  0  0  0  0  0  0
    3.5116   -0.4067   -0.0000 C   0  0  0  0  0  0  0  0  0  0  0  0
    4.1808    0.3364   -0.0000 O   0  0  0  0  0  0  0  0  0  0  0  0
    2.5981   -0.0000   -0.0000 N   0  0  0  0  0  0  0  0  0  0  0  0
    3.6808    1.2024   -0.0000 C   0  0  0  0  0  0  0  0  0  0  0  0
    2.7026    0.9945   -0.0000 N   0  0  0  0  0  0  0  0  0  0  0  0
    1.7321   -0.5000   -0.0000 C   0  0  0  0  0  0  0  0  0  0  0  0
    4.0875    2.1160   -0.0000 C   0  0  0  0  0  0  0  0  0  0  0  0
    0.8660   -0.0000   -0.0000 N   0  0  0  0  0  0  0  0  0  0  0  0
    1.7321   -1.5000   -0.0000 C   0  0  0  0  0  0  0  0  0  0  0  0
    5.0820    2.2205   -0.0000 C   0  0  0  0  0  0  0  0  0  0  0  0
    3.4997    2.9250   -0.0000 C   0  0  0  0  0  0  0  0  0  0  0  0
    0.0000   -0.5000   -0.0000 C   0  0  0  0  0  0  0  0  0  0  0  0
    0.8660   -2.0000   -0.0000 C   0  0  0  0  0  0  0  0  0  0  0  0
    2.5981   -2.0000   -0.0000 C   0  0  0  0  0  0  0  0  0  0  0  0
    5.6698    1.4115   -0.0000 O   0  0  0  0  0  0  0  0  0  0  0  0
    5.4887    3.1341   -0.0000 O   0  0  0  0  0  0  0  0  0  0  0  0
    3.9064    3.8385   -0.0000 C   0  0  0  0  0  0  0  0  0  0  0  0
   -0.8660    0.0000   -0.0000 C   0  0  0  0  0  0  0  0  0  0  0  0
   -0.0000   -1.5000   -0.0000 C   0  0  0  0  0  0  0  0  0  0  0  0
    0.8660   -3.0000   -0.0000 C   0  0  0  0  0  0  0  0  0  0  0  0
    2.5981   -3.0000   -0.0000 C   0  0  0  0  0  0  0  0  0  0  0  0
    4.9010    3.9431   -0.0000 C   0  0  0  0  0  0  0  0  0  0  0  0
    3.3187    4.6476   -0.0000 C   0  0  0  0  0  0  0  0  0  0  0  0
   -1.7321   -0.5000   -0.0000 C   0  0  0  0  0  0  0  0  0  0  0  0
   -0.8660   -2.0000   -0.0000 C   0  0  0  0  0  0  0  0  0  0  0  0
    0.0000   -3.5000   -0.0000 O   0  0  0  0  0  0  0  0  0  0  0  0
    1.7321   -3.5000   -0.0000 C   0  0  0  0  0  0  0  0  0  0  0  0
    5.3077    4.8566   -0.0000 C   0  0  0  0  0  0  0  0  0  0  0  0
    3.7254    5.5611   -0.0000 C   0  0  0  0  0  0  0  0  0  0  0  0
   -1.7321   -1.5000   -0.0000 C   0  0  0  0  0  0  0  0  0  0  0  0
    0.0000   -4.5000   -0.0000 C   0  0  0  0  0  0  0  0  0  0  0  0
    4.7199    5.6656   -0.0000 C   0  0  0  0  0  0  0  0  0  0  0  0
   -2.5981   -2.0000   -0.0000 N   0  0  0  0  0  0  0  0  0  0  0  0
   -3.4641   -1.5000   -0.0000 C   0  0  0  0  0  0  0  0  0  0  0  0
   -3.4641   -0.5000   -0.0000 N   0  0  0  0  0  0  0  0  0  0  0  0
   -4.3301   -2.0000   -0.0000 C   0  0  0  0  0  0  0  0  0  0  0  0
   -2.6551    0.0878   -0.0000 N   0  0  0  0  0  0  0  0  0  0  0  0
   -4.2731    0.0878   -0.0000 C   0  0  0  0  0  0  0  0  0  0  0  0
   -5.1962   -1.5000   -0.0000 C   0  0  0  0  0  0  0  0  0  0  0  0
   -4.3301   -3.0000   -0.0000 C   0  0  0  0  0  0  0  0  0  0  0  0
   -2.9641    1.0388   -0.0000 C   0  0  0  0  0  0  0  0  0  0  0  0
   -5.2242   -0.2212   -0.0000 S   0  0  0  0  0  0  0  0  0  0  0  0
   -3.9641    1.0388   -0.0000 O   0  0  0  0  0  0  0  0  0  0  0  0
   -6.0622   -2.0000   -0.0000 C   0  0  0  0  0  0  0  0  0  0  0  0
   -5.1962   -3.5000   -0.0000 C   0  0  0  0  0  0  0  0  0  0  0  0
   -2.3763    1.8479   -0.0000 C   0  0  0  0  0  0  0  0  0  0  0  0
   -6.9282   -1.5000   -0.0000 O   0  0  0  0  0  0  0  0  0  0  0  0
   -6.0622   -3.0000   -0.0000 C   0  0  0  0  0  0  0  0  0  0  0  0
   -1.3818    1.7433   -0.0000 C   0  0  0  0  0  0  0  0  0  0  0  0
   -2.7831    2.7614   -0.0000 C   0  0  0  0  0  0  0  0  0  0  0  0
   -7.7942   -2.0000   -0.0000 C   0  0  0  0  0  0  0  0  0  0  0  0
   -0.7940    2.5523   -0.0000 C   0  0  0  0  0  0  0  0  0  0  0  0
   -0.9751    0.8298   -0.0000 C   0  0  0  0  0  0  0  0  0  0  0  0
   -2.1953    3.5704   -0.0000 C   0  0  0  0  0  0  0  0  0  0  0  0
   -1.2007    3.4659   -0.0000 O   0  0  0  0  0  0  0  0  0  0  0  0
    0.2005    2.4478   -0.0000 C   0  0  0  0  0  0  0  0  0  0  0  0
    0.0195    0.7253   -0.0000 C   0  0  0  0  0  0  0  0  0  0  0  0
   -2.6020    4.4840   -0.0000 O   0  0  0  0  0  0  0  0  0  0  0  0
    0.6072    1.5343   -0.0000 C   0  0  0  0  0  0  0  0  0  0  0  0
  1  2  2  0  0  0  0
  2  3  1  0  0  0  0
  2  4  1  0  0  0  0
  3  5  1  0  0  0  0
  4  6  1  0  0  0  0
  4  7  1  0  0  0  0
  5  8  1  0  0  0  0
  7  9  1  0  0  0  0
  7 10  1  0  0  0  0
  8 11  1  0  0  0  0
  8 12  2  0  0  0  0
  9 13  1  0  0  0  0
 10 14  2  0  0  0  0
 10 15  1  0  0  0  0
 11 16  2  0  0  0  0
 11 17  1  0  0  0  0
 12 18  1  0  0  0  0
 13 19  2  0  0  0  0
 13 20  1  0  0  0  0
 14 21  1  0  0  0  0
 15 22  2  0  0  0  0
 17 23  1  0  0  0  0
 18 24  1  0  0  0  0
 19 25  1  0  0  0  0
 20 26  2  0  0  0  0
 21 27  1  0  0  0  0
 21 28  2  0  0  0  0
 23 29  1  0  0  0  0
 24 30  2  0  0  0  0
 25 31  2  0  0  0  0
 27 32  1  0  0  0  0
 29 33  2  0  0  0  0
 31 34  1  0  0  0  0
 34 35  1  0  0  0  0
 35 36  1  0  0  0  0
 35 37  1  0  0  0  0
 36 38  1  0  0  0  0
 36 39  1  0  0  0  0
 37 40  2  0  0  0  0
 37 41  1  0  0  0  0
 38 42  2  0  0  0  0
 39 43  2  0  0  0  0
 39 44  1  0  0  0  0
 40 45  1  0  0  0  0
 41 46  2  0  0  0  0
 42 47  1  0  0  0  0
 45 48  1  0  0  0  0
 45 49  2  0  0  0  0
 47 50  1  0  0  0  0
 47 51  2  0  0  0  0
 48 52  1  0  0  0  0
 50 53  2  0  0  0  0
 50 54  1  0  0  0  0
 51 55  1  0  0  0  0
 53 56  1  0  0  0  0
 53 57  1  0  0  0  0
 54 58  2  0  0  0  0
 55 59  2  0  0  0  0
 57 60  2  0  0  0  0
  5  6  2  0  0  0  0
 18 23  2  0  0  0  0
 22 28  1  0  0  0  0
 26 31  1  0  0  0  0
 30 33  1  0  0  0  0
 42 44  1  0  0  0  0
 46 49  1  0  0  0  0
 55 56  1  0  0  0  0
 58 60  1  0  0  0  0
M  END
>  <S/N>
503

>  <Compound ID>
C_520

>  <PubChem CID>
155538960

>  <Isomeric SMILES>
COC1=CC=CC(=C1)C(NC2=CC=C(C=C2)NC(C3=CC(=CC=C3)OC)N4C(=S)OC(=N4)C5=CC(=O)OC6=CC=CC=C65)N7C(=S)OC(=N7)C8=CC9=CC=CC=C9OC8=O

>  <IC50 (�M)>
0.07

>  <pIC50>
7.15

$$$$
C_521
Actelion Java MolfileCreator 1.0

 51 60  0  0  0  0  0  0  0  0999 V2000
    7.8860   -2.3961   -0.0000 O   0  0  0  0  0  0  0  0  0  0  0  0
    6.5121   -3.0078   -0.0000 C   0  0  0  0  0  0  0  0  0  0  0  0
    8.8924   -3.5138   -0.0000 C   0  0  0  0  0  0  0  0  0  0  0  0
    6.6694   -4.5035   -0.0000 N   0  0  0  0  0  0  0  0  0  0  0  0
    5.2097   -2.2559   -0.0000 C   0  0  0  0  0  0  0  0  0  0  0  0
    8.1404   -4.8162   -0.0000 N   0  0  0  0  0  0  0  0  0  0  0  0
   10.3880   -3.3566   -0.0000 C   0  0  0  0  0  0  0  0  0  0  0  0
    5.2097   -0.7520   -0.0000 C   0  0  0  0  0  0  0  0  0  0  0  0
    3.9073   -3.0078   -0.0000 C   0  0  0  0  0  0  0  0  0  0  0  0
   11.3944   -4.4742   -0.0000 C   0  0  0  0  0  0  0  0  0  0  0  0
   11.1400   -2.0541   -0.0000 C   0  0  0  0  0  0  0  0  0  0  0  0
    3.8799   -0.0349   -0.0000 C   0  0  0  0  0  0  0  0  0  0  0  0
    2.6214   -2.2148   -0.0000 C   0  0  0  0  0  0  0  0  0  0  0  0
   12.7683   -3.8625   -0.0000 C   0  0  0  0  0  0  0  0  0  0  0  0
   11.2372   -5.9699   -0.0000 C   0  0  0  0  0  0  0  0  0  0  0  0
   12.6110   -2.3668   -0.0000 N   0  0  0  0  0  0  0  0  0  0  0  0
    2.6049   -0.7520   -0.0000 C   0  0  0  0  0  0  0  0  0  0  0  0
   13.9849   -4.7465   -0.0000 C   0  0  0  0  0  0  0  0  0  0  0  0
   12.4538   -6.8538   -0.0000 C   0  0  0  0  0  0  0  0  0  0  0  0
    1.3024   -0.0000   -0.0000 C   0  0  0  0  0  0  0  0  0  0  0  0
   13.8277   -6.2421   -0.0000 C   0  0  0  0  0  0  0  0  0  0  0  0
    1.3024    1.5039   -0.0000 C   0  0  0  0  0  0  0  0  0  0  0  0
    0.0000   -0.7520   -0.0000 C   0  0  0  0  0  0  0  0  0  0  0  0
    2.5191    2.3879   -0.0000 C   0  0  0  0  0  0  0  0  0  0  0  0
    0.0857    2.3879   -0.0000 C   0  0  0  0  0  0  0  0  0  0  0  0
   -0.1572   -2.2476   -0.0000 C   0  0  0  0  0  0  0  0  0  0  0  0
   -1.3739   -0.1403   -0.0000 C   0  0  0  0  0  0  0  0  0  0  0  0
    2.0544    3.8182   -0.0000 N   0  0  0  0  0  0  0  0  0  0  0  0
    3.9494    1.9232   -0.0000 C   0  0  0  0  0  0  0  0  0  0  0  0
    0.5505    3.8182   -0.0000 C   0  0  0  0  0  0  0  0  0  0  0  0
   -1.3853    2.0752   -0.0000 C   0  0  0  0  0  0  0  0  0  0  0  0
   -1.6283   -2.5603   -0.0000 N   0  0  0  0  0  0  0  0  0  0  0  0
    0.9604   -3.2540   -0.0000 C   0  0  0  0  0  0  0  0  0  0  0  0
   -2.3802   -1.2579   -0.0000 C   0  0  0  0  0  0  0  0  0  0  0  0
   -1.8386    1.2900   -0.0000 C   0  0  0  0  0  0  0  0  0  0  0  0
    4.3168    0.5218   -0.0000 C   0  0  0  0  0  0  0  0  0  0  0  0
    5.0671    2.9295   -0.0000 C   0  0  0  0  0  0  0  0  0  0  0  0
   -0.4558    4.9358   -0.0000 C   0  0  0  0  0  0  0  0  0  0  0  0
   -2.3916    3.1928   -0.0000 C   0  0  0  0  0  0  0  0  0  0  0  0
    2.3577   -2.8715   -0.0000 C   0  0  0  0  0  0  0  0  0  0  0  0
    0.6477   -4.7250   -0.0000 C   0  0  0  0  0  0  0  0  0  0  0  0
   -3.8513   -0.9452   -0.0000 C   0  0  0  0  0  0  0  0  0  0  0  0
   -3.3097    1.6027   -0.0000 C   0  0  0  0  0  0  0  0  0  0  0  0
    5.6924   -0.0126   -0.0000 C   0  0  0  0  0  0  0  0  0  0  0  0
    6.4974    2.4647   -0.0000 C   0  0  0  0  0  0  0  0  0  0  0  0
   -1.9269    4.6232   -0.0000 C   0  0  0  0  0  0  0  0  0  0  0  0
    3.5084   -3.7955   -0.0000 C   0  0  0  0  0  0  0  0  0  0  0  0
    1.7654   -5.7313   -0.0000 C   0  0  0  0  0  0  0  0  0  0  0  0
   -4.3160    0.4851   -0.0000 C   0  0  0  0  0  0  0  0  0  0  0  0
    6.8101    0.9937   -0.0000 C   0  0  0  0  0  0  0  0  0  0  0  0
    3.1957   -5.2666   -0.0000 C   0  0  0  0  0  0  0  0  0  0  0  0
  1  2  1  0  0  0  0
  1  3  1  0  0  0  0
  2  4  2  0  0  0  0
  2  5  1  0  0  0  0
  3  6  2  0  0  0  0
  3  7  1  0  0  0  0
  5  8  2  0  0  0  0
  5  9  1  0  0  0  0
  7 10  1  0  0  0  0
  7 11  2  0  0  0  0
  8 12  1  0  0  0  0
  9 13  2  0  0  0  0
 10 14  2  0  0  0  0
 10 15  1  0  0  0  0
 11 16  1  0  0  0  0
 12 17  2  0  0  0  0
 14 18  1  0  0  0  0
 15 19  2  0  0  0  0
 17 20  1  0  0  0  0
 18 21  2  0  0  0  0
 20 22  1  0  0  0  0
 20 23  1  0  0  0  0
 22 24  2  0  0  0  0
 22 25  1  0  0  0  0
 23 26  2  0  0  0  0
 23 27  1  0  0  0  0
 24 28  1  0  0  0  0
 24 29  1  0  0  0  0
 25 30  2  0  0  0  0
 25 31  1  0  0  0  0
 26 32  1  0  0  0  0
 26 33  1  0  0  0  0
 27 34  2  0  0  0  0
 27 35  1  0  0  0  0
 29 36  2  0  0  0  0
 29 37  1  0  0  0  0
 30 38  1  0  0  0  0
 31 39  2  0  0  0  0
 33 40  2  0  0  0  0
 33 41  1  0  0  0  0
 34 42  1  0  0  0  0
 35 43  2  0  0  0  0
 36 44  1  0  0  0  0
 37 45  2  0  0  0  0
 38 46  2  0  0  0  0
 40 47  1  0  0  0  0
 41 48  2  0  0  0  0
 42 49  2  0  0  0  0
 44 50  2  0  0  0  0
 47 51  2  0  0  0  0
  4  6  1  0  0  0  0
 13 17  1  0  0  0  0
 14 16  1  0  0  0  0
 19 21  1  0  0  0  0
 28 30  1  0  0  0  0
 32 34  1  0  0  0  0
 39 46  1  0  0  0  0
 43 49  1  0  0  0  0
 45 50  1  0  0  0  0
 48 51  1  0  0  0  0
M  END
>  <S/N>
504

>  <Compound ID>
C_521

>  <PubChem CID>
155539790

>  <Isomeric SMILES>
C1=CC=C(C=C1)C2=C(C3=CC=CC=C3N2)C(C4=CC=C(C=C4)C5=NN=C(O5)C6=CNC7=CC=CC=C76)C8=C(NC9=CC=CC=C98)C1=CC=CC=C1

>  <IC50 (�M)>
20

>  <pIC50>
4.7

$$$$
C_522
Actelion Java MolfileCreator 1.0

 41 45  0  0  0  0  0  0  0  0999 V2000
    9.9708   -7.4973   -0.0000 Br  0  0  0  0  0  0  0  0  0  0  0  0
    8.9762   -7.3928   -0.0000 C   0  0  0  0  0  0  0  0  0  0  0  0
    8.5695   -6.4792   -0.0000 C   0  0  0  0  0  0  0  0  0  0  0  0
    8.3885   -8.2018   -0.0000 C   0  0  0  0  0  0  0  0  0  0  0  0
    7.5750   -6.3747   -0.0000 C   0  0  0  0  0  0  0  0  0  0  0  0
    7.3939   -8.0973   -0.0000 C   0  0  0  0  0  0  0  0  0  0  0  0
    7.1682   -5.4611   -0.0000 O   0  0  0  0  0  0  0  0  0  0  0  0
    6.9872   -7.1837   -0.0000 C   0  0  0  0  0  0  0  0  0  0  0  0
    6.1737   -5.3566   -0.0000 C   0  0  0  0  0  0  0  0  0  0  0  0
    5.9927   -7.0792   -0.0000 C   0  0  0  0  0  0  0  0  0  0  0  0
    5.5859   -6.1656   -0.0000 C   0  0  0  0  0  0  0  0  0  0  0  0
    5.7670   -4.4431   -0.0000 C   0  0  0  0  0  0  0  0  0  0  0  0
    5.4049   -7.8882   -0.0000 O   0  0  0  0  0  0  0  0  0  0  0  0
    4.5914   -6.0611   -0.0000 C   0  0  0  0  0  0  0  0  0  0  0  0
    4.7725   -4.3385   -0.0000 C   0  0  0  0  0  0  0  0  0  0  0  0
    4.0036   -6.8701   -0.0000 O   0  0  0  0  0  0  0  0  0  0  0  0
    4.1847   -5.1476   -0.0000 C   0  0  0  0  0  0  0  0  0  0  0  0
    4.3657   -3.4250   -0.0000 O   0  0  0  0  0  0  0  0  0  0  0  0
    3.0091   -6.7656   -0.0000 C   0  0  0  0  0  0  0  0  0  0  0  0
    4.9535   -2.6160   -0.0000 C   0  0  0  0  0  0  0  0  0  0  0  0
    2.6024   -5.8520   -0.0000 O   0  0  0  0  0  0  0  0  0  0  0  0
    2.4213   -7.5746   -0.0000 C   0  0  0  0  0  0  0  0  0  0  0  0
    4.5468   -1.7024   -0.0000 C   0  0  0  0  0  0  0  0  0  0  0  0
    5.0468   -0.8364   -0.0000 N   0  0  0  0  0  0  0  0  0  0  0  0
    3.5686   -1.4945   -0.0000 C   0  0  0  0  0  0  0  0  0  0  0  0
    4.3776   -0.0933   -0.0000 N   0  0  0  0  0  0  0  0  0  0  0  0
    3.4641   -0.5000   -0.0000 N   0  0  0  0  0  0  0  0  0  0  0  0
    2.5981   -0.0000   -0.0000 C   0  0  0  0  0  0  0  0  0  0  0  0
    1.7321   -0.5000   -0.0000 C   0  0  0  0  0  0  0  0  0  0  0  0
    1.7321   -1.5000   -0.0000 O   0  0  0  0  0  0  0  0  0  0  0  0
    0.8660   -0.0000   -0.0000 N   0  0  0  0  0  0  0  0  0  0  0  0
    0.0000   -0.5000   -0.0000 C   0  0  0  0  0  0  0  0  0  0  0  0
   -0.8660    0.0000   -0.0000 C   0  0  0  0  0  0  0  0  0  0  0  0
   -0.0000   -1.5000   -0.0000 C   0  0  0  0  0  0  0  0  0  0  0  0
   -0.8660    1.0000   -0.0000 O   0  0  0  0  0  0  0  0  0  0  0  0
   -1.7321   -0.5000   -0.0000 C   0  0  0  0  0  0  0  0  0  0  0  0
   -0.8660   -2.0000   -0.0000 C   0  0  0  0  0  0  0  0  0  0  0  0
   -1.7321    1.5000   -0.0000 C   0  0  0  0  0  0  0  0  0  0  0  0
   -1.7321   -1.5000   -0.0000 C   0  0  0  0  0  0  0  0  0  0  0  0
   -2.5981   -2.0000   -0.0000 O   0  0  0  0  0  0  0  0  0  0  0  0
   -2.5981   -3.0000   -0.0000 C   0  0  0  0  0  0  0  0  0  0  0  0
  1  2  1  0  0  0  0
  2  3  2  0  0  0  0
  2  4  1  0  0  0  0
  3  5  1  0  0  0  0
  4  6  2  0  0  0  0
  5  7  1  0  0  0  0
  5  8  2  0  0  0  0
  7  9  1  0  0  0  0
  8 10  1  0  0  0  0
  9 11  2  0  0  0  0
  9 12  1  0  0  0  0
 10 13  2  0  0  0  0
 11 14  1  0  0  0  0
 12 15  2  0  0  0  0
 14 16  1  0  0  0  0
 14 17  2  0  0  0  0
 15 18  1  0  0  0  0
 16 19  1  0  0  0  0
 18 20  1  0  0  0  0
 19 21  2  0  0  0  0
 19 22  1  0  0  0  0
 20 23  1  0  0  0  0
 23 24  1  0  0  0  0
 23 25  2  0  0  0  0
 24 26  2  0  0  0  0
 25 27  1  0  0  0  0
 27 28  1  0  0  0  0
 28 29  1  0  0  0  0
 29 30  2  0  0  0  0
 29 31  1  0  0  0  0
 31 32  1  0  0  0  0
 32 33  2  0  0  0  0
 32 34  1  0  0  0  0
 33 35  1  0  0  0  0
 33 36  1  0  0  0  0
 34 37  2  0  0  0  0
 35 38  1  0  0  0  0
 36 39  2  0  0  0  0
 39 40  1  0  0  0  0
 40 41  1  0  0  0  0
  6  8  1  0  0  0  0
 10 11  1  0  0  0  0
 15 17  1  0  0  0  0
 26 27  1  0  0  0  0
 37 39  1  0  0  0  0
M  END
>  <S/N>
505

>  <Compound ID>
C_522

>  <PubChem CID>
155539994

>  <Isomeric SMILES>
CC(=O)OC1=CC(=CC2=C1C(=O)C3=C(O2)C=C(C=C3)Br)OCC4=CN(N=N4)CC(=O)NC5=C(C=C(C=C5)OC)OC

>  <IC50 (�M)>
12.78

>  <pIC50>
4.89

$$$$
C_523
Actelion Java MolfileCreator 1.0

 20 22  0  0  0  0  0  0  0  0999 V2000
    3.4641   -1.5000   -0.0000 Cl  0  0  0  0  0  0  0  0  0  0  0  0
    3.4641   -0.5000   -0.0000 C   0  0  0  0  0  0  0  0  0  0  0  0
    4.3301   -0.0000   -0.0000 C   0  0  0  0  0  0  0  0  0  0  0  0
    2.5981   -0.0000   -0.0000 C   0  0  0  0  0  0  0  0  0  0  0  0
    5.1962   -0.5000   -0.0000 Cl  0  0  0  0  0  0  0  0  0  0  0  0
    4.3301    1.0000   -0.0000 C   0  0  0  0  0  0  0  0  0  0  0  0
    1.7321   -0.5000   -0.0000 C   0  0  0  0  0  0  0  0  0  0  0  0
    2.5981    1.0000   -0.0000 C   0  0  0  0  0  0  0  0  0  0  0  0
    3.4641    1.5000   -0.0000 C   0  0  0  0  0  0  0  0  0  0  0  0
    1.7321   -1.5000   -0.0000 O   0  0  0  0  0  0  0  0  0  0  0  0
    0.8660   -0.0000   -0.0000 C   0  0  0  0  0  0  0  0  0  0  0  0
    0.0000   -0.5000   -0.0000 N   0  0  0  0  0  0  0  0  0  0  0  0
   -0.9135   -0.0933   -0.0000 N   0  0  0  0  0  0  0  0  0  0  0  0
   -0.1045   -1.4945   -0.0000 C   0  0  0  0  0  0  0  0  0  0  0  0
   -1.5827   -0.8364   -0.0000 N   0  0  0  0  0  0  0  0  0  0  0  0
   -1.0827   -1.7024   -0.0000 C   0  0  0  0  0  0  0  0  0  0  0  0
    0.5646   -2.2377   -0.0000 C   0  0  0  0  0  0  0  0  0  0  0  0
   -1.3917   -2.6535   -0.0000 C   0  0  0  0  0  0  0  0  0  0  0  0
    0.2556   -3.1887   -0.0000 C   0  0  0  0  0  0  0  0  0  0  0  0
   -0.7226   -3.3966   -0.0000 C   0  0  0  0  0  0  0  0  0  0  0  0
  1  2  1  0  0  0  0
  2  3  2  0  0  0  0
  2  4  1  0  0  0  0
  3  5  1  0  0  0  0
  3  6  1  0  0  0  0
  4  7  1  0  0  0  0
  4  8  2  0  0  0  0
  6  9  2  0  0  0  0
  7 10  2  0  0  0  0
  7 11  1  0  0  0  0
 11 12  1  0  0  0  0
 12 13  1  0  0  0  0
 12 14  1  0  0  0  0
 13 15  2  0  0  0  0
 14 16  2  0  0  0  0
 14 17  1  0  0  0  0
 16 18  1  0  0  0  0
 17 19  2  0  0  0  0
 18 20  2  0  0  0  0
  8  9  1  0  0  0  0
 15 16  1  0  0  0  0
 19 20  1  0  0  0  0
M  END
>  <S/N>
506

>  <Compound ID>
C_523

>  <PubChem CID>
155540166

>  <Isomeric SMILES>
C1=CC=C2C(=C1)N=NN2CC(=O)C3=C(C(=CC=C3)Cl)Cl

>  <IC50 (�M)>
3.47

>  <pIC50>
5.46

$$$$
C_524
Actelion Java MolfileCreator 1.0

 40 44  0  0  1  0  0  0  0  0999 V2000
    0.0000   -3.5000   -0.0000 Cl  0  0  0  0  0  0  0  0  0  0  0  0
    0.8660   -3.0000   -0.0000 C   0  0  0  0  0  0  0  0  0  0  0  0
    1.7321   -3.5000   -0.0000 C   0  0  0  0  0  0  0  0  0  0  0  0
    0.8660   -2.0000   -0.0000 C   0  0  0  0  0  0  0  0  0  0  0  0
    2.5981   -3.0000   -0.0000 C   0  0  0  0  0  0  0  0  0  0  0  0
    1.7321   -1.5000   -0.0000 C   0  0  0  0  0  0  0  0  0  0  0  0
    2.5981   -2.0000   -0.0000 C   0  0  0  0  0  0  0  0  0  0  0  0
    3.4641   -1.5000   -0.0000 C   0  0  0  0  0  0  0  0  0  0  0  0
    4.3301   -2.0000   -0.0000 N   0  0  0  0  0  0  0  0  0  0  0  0
    3.4641   -0.5000   -0.0000 C   0  0  0  0  0  0  0  0  0  0  0  0
    4.3301   -3.0000   -0.0000 C   0  0  0  0  0  0  0  0  0  0  0  0
    5.1962   -1.5000   -0.0000 C   0  0  0  0  0  0  0  0  0  0  0  0
    4.3301   -0.0000   -0.0000 C   0  0  0  0  0  0  0  0  0  0  0  0
    2.5981   -0.0000   -0.0000 C   0  0  0  0  0  0  0  0  0  0  0  0
    3.4641   -3.5000   -0.0000 C   0  0  0  0  0  0  0  0  0  0  0  0
    5.1962   -3.5000   -0.0000 C   0  0  0  0  0  0  0  0  0  0  0  0
    6.0622   -2.0000   -0.0000 C   0  0  0  0  0  0  0  0  0  0  0  0
    5.1962   -0.5000   -0.0000 C   0  0  0  0  0  0  0  0  0  0  0  0
    4.3301    1.0000   -0.0000 N   0  0  0  0  0  0  0  0  0  0  0  0
    1.7321   -0.5000   -0.0000 O   0  0  0  0  0  0  0  0  0  0  0  0
    2.5981    1.0000   -0.0000 O   0  0  0  0  0  0  0  0  0  0  0  0
    3.4641   -4.5000   -0.0000 C   0  0  0  0  0  0  0  0  0  0  0  0
    5.1962   -4.5000   -0.0000 C   0  0  0  0  0  0  0  0  0  0  0  0
    6.0622   -3.0000   -0.0000 C   0  0  0  0  0  0  0  0  0  0  0  0
    6.9282   -1.5000   -0.0000 C   0  0  0  0  0  0  0  0  0  0  0  0
    5.1962    1.5000   -0.0000 C   0  0  0  0  0  0  0  0  0  0  0  0
    1.7321    1.5000   -0.0000 C   0  0  0  0  0  0  0  0  0  0  0  0
    2.5981   -5.0000   -0.0000 F   0  0  0  0  0  0  0  0  0  0  0  0
    4.3301   -5.0000   -0.0000 C   0  0  0  0  0  0  0  0  0  0  0  0
    6.9282   -3.5000   -0.0000 C   0  0  0  0  0  0  0  0  0  0  0  0
    7.7942   -2.0000   -0.0000 C   0  0  0  0  0  0  0  0  0  0  0  0
    5.1962    2.5000   -0.0000 C   0  0  0  0  0  0  0  0  0  0  0  0
    6.0622    1.0000   -0.0000 C   0  0  0  0  0  0  0  0  0  0  0  0
    1.7321    2.5000   -0.0000 C   0  0  0  0  0  0  0  0  0  0  0  0
    7.7942   -3.0000   -0.0000 C   0  0  0  0  0  0  0  0  0  0  0  0
    6.0622    3.0000   -0.0000 C   0  0  0  0  0  0  0  0  0  0  0  0
    6.9282    1.5000   -0.0000 C   0  0  0  0  0  0  0  0  0  0  0  0
    8.6603   -3.5000   -0.0000 Cl  0  0  0  0  0  0  0  0  0  0  0  0
    6.0622    4.0000   -0.0000 F   0  0  0  0  0  0  0  0  0  0  0  0
    6.9282    2.5000   -0.0000 C   0  0  0  0  0  0  0  0  0  0  0  0
  1  2  1  0  0  0  0
  2  3  2  0  0  0  0
  2  4  1  0  0  0  0
  3  5  1  0  0  0  0
  4  6  2  0  0  0  0
  5  7  2  0  0  0  0
  8  7  1  6  0  0  0
  8  9  1  0  0  0  0
  8 10  1  0  0  0  0
  9 11  1  0  0  0  0
  9 12  1  0  0  0  0
 10 13  2  0  0  0  0
 10 14  1  0  0  0  0
 11 15  2  0  0  0  0
 11 16  1  0  0  0  0
 12 17  1  1  0  0  0
 12 18  1  0  0  0  0
 13 19  1  0  0  0  0
 14 20  2  0  0  0  0
 14 21  1  0  0  0  0
 15 22  1  0  0  0  0
 16 23  2  0  0  0  0
 17 24  2  0  0  0  0
 17 25  1  0  0  0  0
 19 26  1  0  0  0  0
 21 27  1  0  0  0  0
 22 28  1  0  0  0  0
 22 29  2  0  0  0  0
 24 30  1  0  0  0  0
 25 31  2  0  0  0  0
 26 32  2  0  0  0  0
 26 33  1  0  0  0  0
 27 34  1  0  0  0  0
 30 35  2  0  0  0  0
 32 36  1  0  0  0  0
 33 37  2  0  0  0  0
 35 38  1  0  0  0  0
 36 39  1  0  0  0  0
 36 40  2  0  0  0  0
  6  7  1  0  0  0  0
 13 18  1  0  0  0  0
 23 29  1  0  0  0  0
 31 35  1  0  0  0  0
 37 40  1  0  0  0  0
M  END
>  <S/N>
507

>  <Compound ID>
C_524

>  <PubChem CID>
155540302

>  <Isomeric SMILES>
CCOC(=O)C1=C(C[C@H](N([C@@H]1C2=CC=C(C=C2)Cl)C3=CC(=CC=C3)F)C4=CC=C(C=C4)Cl)NC5=CC(=CC=C5)F

>  <IC50 (�M)>
2.3

>  <pIC50>
5.64

$$$$
C_525
Actelion Java MolfileCreator 1.0

 24 27  0  0  0  0  0  0  0  0999 V2000
    5.6808    2.9345   -0.0000 Cl  0  0  0  0  0  0  0  0  0  0  0  0
    5.1808    2.0685   -0.0000 C   0  0  0  0  0  0  0  0  0  0  0  0
    4.1808    2.0685   -0.0000 C   0  0  0  0  0  0  0  0  0  0  0  0
    5.6808    1.2024   -0.0000 C   0  0  0  0  0  0  0  0  0  0  0  0
    3.6808    1.2024   -0.0000 C   0  0  0  0  0  0  0  0  0  0  0  0
    5.1808    0.3364   -0.0000 C   0  0  0  0  0  0  0  0  0  0  0  0
    2.7026    0.9945   -0.0000 N   0  0  0  0  0  0  0  0  0  0  0  0
    4.1808    0.3364   -0.0000 C   0  0  0  0  0  0  0  0  0  0  0  0
    2.5981   -0.0000   -0.0000 C   0  0  0  0  0  0  0  0  0  0  0  0
    3.5116   -0.4067   -0.0000 S   0  0  0  0  0  0  0  0  0  0  0  0
    1.7321   -0.5000   -0.0000 S   0  0  0  0  0  0  0  0  0  0  0  0
    0.8660   -0.0000   -0.0000 C   0  0  0  0  0  0  0  0  0  0  0  0
    0.0000   -0.5000   -0.0000 C   0  0  0  0  0  0  0  0  0  0  0  0
   -0.9135   -0.0933   -0.0000 N   0  0  0  0  0  0  0  0  0  0  0  0
   -0.1045   -1.4945   -0.0000 C   0  0  0  0  0  0  0  0  0  0  0  0
   -1.5827   -0.8364   -0.0000 N   0  0  0  0  0  0  0  0  0  0  0  0
   -1.0827   -1.7024   -0.0000 N   0  0  0  0  0  0  0  0  0  0  0  0
   -1.4894   -2.6160   -0.0000 C   0  0  0  0  0  0  0  0  0  0  0  0
   -0.9016   -3.4250   -0.0000 C   0  0  0  0  0  0  0  0  0  0  0  0
   -1.3084   -4.3385   -0.0000 C   0  0  0  0  0  0  0  0  0  0  0  0
    0.0929   -3.3205   -0.0000 C   0  0  0  0  0  0  0  0  0  0  0  0
   -0.7206   -5.1476   -0.0000 C   0  0  0  0  0  0  0  0  0  0  0  0
    0.6807   -4.1295   -0.0000 C   0  0  0  0  0  0  0  0  0  0  0  0
    0.2739   -5.0430   -0.0000 C   0  0  0  0  0  0  0  0  0  0  0  0
  1  2  1  0  0  0  0
  2  3  2  0  0  0  0
  2  4  1  0  0  0  0
  3  5  1  0  0  0  0
  4  6  2  0  0  0  0
  5  7  1  0  0  0  0
  5  8  2  0  0  0  0
  7  9  2  0  0  0  0
  8 10  1  0  0  0  0
  9 11  1  0  0  0  0
 11 12  1  0  0  0  0
 12 13  1  0  0  0  0
 13 14  1  0  0  0  0
 13 15  2  0  0  0  0
 14 16  2  0  0  0  0
 15 17  1  0  0  0  0
 17 18  1  0  0  0  0
 18 19  1  0  0  0  0
 19 20  2  0  0  0  0
 19 21  1  0  0  0  0
 20 22  1  0  0  0  0
 21 23  2  0  0  0  0
 22 24  2  0  0  0  0
  6  8  1  0  0  0  0
  9 10  1  0  0  0  0
 16 17  1  0  0  0  0
 23 24  1  0  0  0  0
M  END
>  <S/N>
508

>  <Compound ID>
C_525

>  <PubChem CID>
155540379

>  <Isomeric SMILES>
C1=CC=C(C=C1)CN2C=C(N=N2)CSC3=NC4=C(S3)C=CC(=C4)Cl

>  <IC50 (�M)>
20

>  <pIC50>
4.7

$$$$
C_526
Actelion Java MolfileCreator 1.0

 36 40  0  0  0  0  0  0  0  0999 V2000
    5.2093    3.8193   -0.0000 Cl  0  0  0  0  0  0  0  0  0  0  0  0
    5.0014    2.8412   -0.0000 C   0  0  0  0  0  0  0  0  0  0  0  0
    4.0503    2.5322   -0.0000 C   0  0  0  0  0  0  0  0  0  0  0  0
    5.7445    2.1720   -0.0000 C   0  0  0  0  0  0  0  0  0  0  0  0
    3.8424    1.5540   -0.0000 C   0  0  0  0  0  0  0  0  0  0  0  0
    5.5366    1.1939   -0.0000 C   0  0  0  0  0  0  0  0  0  0  0  0
    4.5856    0.8849   -0.0000 C   0  0  0  0  0  0  0  0  0  0  0  0
    4.3776   -0.0933   -0.0000 N   0  0  0  0  0  0  0  0  0  0  0  0
    3.4641   -0.5000   -0.0000 C   0  0  0  0  0  0  0  0  0  0  0  0
    5.0468   -0.8364   -0.0000 C   0  0  0  0  0  0  0  0  0  0  0  0
    3.5686   -1.4945   -0.0000 S   0  0  0  0  0  0  0  0  0  0  0  0
    2.5981   -0.0000   -0.0000 N   0  0  0  0  0  0  0  0  0  0  0  0
    6.0413   -0.7319   -0.0000 O   0  0  0  0  0  0  0  0  0  0  0  0
    4.5468   -1.7024   -0.0000 C   0  0  0  0  0  0  0  0  0  0  0  0
    1.7321   -0.5000   -0.0000 N   0  0  0  0  0  0  0  0  0  0  0  0
    4.9535   -2.6160   -0.0000 C   0  0  0  0  0  0  0  0  0  0  0  0
    0.8660   -0.0000   -0.0000 C   0  0  0  0  0  0  0  0  0  0  0  0
    4.3657   -3.4250   -0.0000 C   0  0  0  0  0  0  0  0  0  0  0  0
    0.8660    1.0000   -0.0000 O   0  0  0  0  0  0  0  0  0  0  0  0
    0.0000   -0.5000   -0.0000 C   0  0  0  0  0  0  0  0  0  0  0  0
    4.7725   -4.3385   -0.0000 C   0  0  0  0  0  0  0  0  0  0  0  0
    3.3712   -3.3205   -0.0000 C   0  0  0  0  0  0  0  0  0  0  0  0
   -0.8660    0.0000   -0.0000 C   0  0  0  0  0  0  0  0  0  0  0  0
   -0.0000   -1.5000   -0.0000 C   0  0  0  0  0  0  0  0  0  0  0  0
    4.1847   -5.1476   -0.0000 C   0  0  0  0  0  0  0  0  0  0  0  0
    2.7834   -4.1295   -0.0000 C   0  0  0  0  0  0  0  0  0  0  0  0
   -0.8660    1.0000   -0.0000 O   0  0  0  0  0  0  0  0  0  0  0  0
   -1.7321   -0.5000   -0.0000 O   0  0  0  0  0  0  0  0  0  0  0  0
   -0.8660   -2.0000   -0.0000 C   0  0  0  0  0  0  0  0  0  0  0  0
    3.1902   -5.0430   -0.0000 C   0  0  0  0  0  0  0  0  0  0  0  0
   -1.7321   -1.5000   -0.0000 C   0  0  0  0  0  0  0  0  0  0  0  0
   -0.8660   -3.0000   -0.0000 C   0  0  0  0  0  0  0  0  0  0  0  0
    2.6024   -5.8520   -0.0000 F   0  0  0  0  0  0  0  0  0  0  0  0
   -2.5981   -2.0000   -0.0000 C   0  0  0  0  0  0  0  0  0  0  0  0
   -1.7321   -3.5000   -0.0000 C   0  0  0  0  0  0  0  0  0  0  0  0
   -2.5981   -3.0000   -0.0000 C   0  0  0  0  0  0  0  0  0  0  0  0
  1  2  1  0  0  0  0
  2  3  2  0  0  0  0
  2  4  1  0  0  0  0
  3  5  1  0  0  0  0
  4  6  2  0  0  0  0
  5  7  2  0  0  0  0
  7  8  1  0  0  0  0
  8  9  1  0  0  0  0
  8 10  1  0  0  0  0
  9 11  1  0  0  0  0
  9 12  2  0  0  0  0
 10 13  2  0  0  0  0
 10 14  1  0  0  0  0
 12 15  1  0  0  0  0
 14 16  2  0  0  0  0
 15 17  1  0  0  0  0
 16 18  1  0  0  0  0
 17 19  2  0  0  0  0
 17 20  1  0  0  0  0
 18 21  2  0  0  0  0
 18 22  1  0  0  0  0
 20 23  1  0  0  0  0
 20 24  2  0  0  0  0
 21 25  1  0  0  0  0
 22 26  2  0  0  0  0
 23 27  2  0  0  0  0
 23 28  1  0  0  0  0
 24 29  1  0  0  0  0
 25 30  2  0  0  0  0
 28 31  1  0  0  0  0
 29 32  2  0  0  0  0
 30 33  1  0  0  0  0
 31 34  2  0  0  0  0
 32 35  1  0  0  0  0
 34 36  1  0  0  0  0
  6  7  1  0  0  0  0
 11 14  1  0  0  0  0
 26 30  1  0  0  0  0
 29 31  1  0  0  0  0
 35 36  2  0  0  0  0
M  END
>  <S/N>
509

>  <Compound ID>
C_526

>  <PubChem CID>
155540420

>  <Isomeric SMILES>
C1=CC=C2C(=C1)C=C(C(=O)O2)C(=O)N/N=C\3/N(C(=O)/C(=C/C4=CC=C(C=C4)F)/S3)C5=CC=C(C=C5)Cl

>  <IC50 (�M)>
0.09

>  <pIC50>
7.05

$$$$
C_527
Actelion Java MolfileCreator 1.0

 64 70  0  0  0  0  0  0  0  0999 V2000
    5.1962   -0.7500   -0.0000 S   0  0  0  0  0  0  0  0  0  0  0  0
    4.4462   -2.0490   -0.0000 O   0  0  0  0  0  0  0  0  0  0  0  0
    5.9462   -2.0490   -0.0000 O   0  0  0  0  0  0  0  0  0  0  0  0
    3.8971   -0.0000   -0.0000 N   0  0  0  0  0  0  0  0  0  0  0  0
    6.4952   -0.0000   -0.0000 C   0  0  0  0  0  0  0  0  0  0  0  0
    2.5981   -0.7500   -0.0000 N   0  0  0  0  0  0  0  0  0  0  0  0
    6.4952    1.5000   -0.0000 C   0  0  0  0  0  0  0  0  0  0  0  0
    7.7942   -0.7500   -0.0000 C   0  0  0  0  0  0  0  0  0  0  0  0
    1.2990   -0.0000   -0.0000 C   0  0  0  0  0  0  0  0  0  0  0  0
    5.1962    2.2500   -0.0000 N   0  0  0  0  0  0  0  0  0  0  0  0
    7.7942    2.2500   -0.0000 C   0  0  0  0  0  0  0  0  0  0  0  0
    9.0933   -0.0000   -0.0000 C   0  0  0  0  0  0  0  0  0  0  0  0
    1.2990    1.5000   -0.0000 O   0  0  0  0  0  0  0  0  0  0  0  0
    0.0000   -0.7500   -0.0000 C   0  0  0  0  0  0  0  0  0  0  0  0
    3.8971    1.5000   -0.0000 O   0  0  0  0  0  0  0  0  0  0  0  0
    5.1962    3.7500   -0.0000 O   0  0  0  0  0  0  0  0  0  0  0  0
    9.0933    1.5000   -0.0000 C   0  0  0  0  0  0  0  0  0  0  0  0
   -0.0000   -2.2500   -0.0000 C   0  0  0  0  0  0  0  0  0  0  0  0
   -1.2990    0.0000   -0.0000 C   0  0  0  0  0  0  0  0  0  0  0  0
   10.3923    2.2500   -0.0000 N   0  0  0  0  0  0  0  0  0  0  0  0
   -1.2990   -3.0000   -0.0000 C   0  0  0  0  0  0  0  0  0  0  0  0
   -2.5981   -0.7500   -0.0000 C   0  0  0  0  0  0  0  0  0  0  0  0
   10.3923    3.7500   -0.0000 O   0  0  0  0  0  0  0  0  0  0  0  0
   11.6914    1.5000   -0.0000 O   0  0  0  0  0  0  0  0  0  0  0  0
   -2.5981   -2.2500   -0.0000 C   0  0  0  0  0  0  0  0  0  0  0  0
   -1.6109   -4.4672   -0.0000 C   0  0  0  0  0  0  0  0  0  0  0  0
   -3.7128   -3.2537   -0.0000 N   0  0  0  0  0  0  0  0  0  0  0  0
   -3.1027   -4.6240   -0.0000 C   0  0  0  0  0  0  0  0  0  0  0  0
   -0.6072   -5.5819   -0.0000 C   0  0  0  0  0  0  0  0  0  0  0  0
   -1.0707   -7.0085   -0.0000 C   0  0  0  0  0  0  0  0  0  0  0  0
    0.8600   -5.2701   -0.0000 C   0  0  0  0  0  0  0  0  0  0  0  0
   -2.5380   -7.3204   -0.0000 C   0  0  0  0  0  0  0  0  0  0  0  0
   -0.0670   -8.1233   -0.0000 C   0  0  0  0  0  0  0  0  0  0  0  0
    1.9747   -6.2738   -0.0000 C   0  0  0  0  0  0  0  0  0  0  0  0
    1.4701   -3.8998   -0.0000 C   0  0  0  0  0  0  0  0  0  0  0  0
   -3.0015   -8.7470   -0.0000 C   0  0  0  0  0  0  0  0  0  0  0  0
   -0.5306   -9.5498   -0.0000 C   0  0  0  0  0  0  0  0  0  0  0  0
    3.2738   -5.5238   -0.0000 C   0  0  0  0  0  0  0  0  0  0  0  0
    1.9747   -7.7738   -0.0000 C   0  0  0  0  0  0  0  0  0  0  0  0
    2.9619   -4.0566   -0.0000 N   0  0  0  0  0  0  0  0  0  0  0  0
   -1.9978   -9.8617   -0.0000 C   0  0  0  0  0  0  0  0  0  0  0  0
    4.5728   -6.2738   -0.0000 C   0  0  0  0  0  0  0  0  0  0  0  0
    3.2738   -8.5238   -0.0000 C   0  0  0  0  0  0  0  0  0  0  0  0
   -2.4613  -11.2883   -0.0000 C   0  0  0  0  0  0  0  0  0  0  0  0
    4.5728   -7.7738   -0.0000 C   0  0  0  0  0  0  0  0  0  0  0  0
    3.2738  -10.0238   -0.0000 C   0  0  0  0  0  0  0  0  0  0  0  0
    4.5728  -10.7738   -0.0000 O   0  0  0  0  0  0  0  0  0  0  0  0
    1.9747  -10.7738   -0.0000 N   0  0  0  0  0  0  0  0  0  0  0  0
    1.9747  -12.2738   -0.0000 N   0  0  0  0  0  0  0  0  0  0  0  0
    0.6757  -13.0238   -0.0000 S   0  0  0  0  0  0  0  0  0  0  0  0
   -0.0743  -11.7248   -0.0000 O   0  0  0  0  0  0  0  0  0  0  0  0
   -0.8243  -13.0238   -0.0000 O   0  0  0  0  0  0  0  0  0  0  0  0
    0.6757  -14.5238   -0.0000 C   0  0  0  0  0  0  0  0  0  0  0  0
    1.9747  -15.2738   -0.0000 C   0  0  0  0  0  0  0  0  0  0  0  0
   -0.6233  -15.2738   -0.0000 C   0  0  0  0  0  0  0  0  0  0  0  0
    3.2738  -14.5238   -0.0000 N   0  0  0  0  0  0  0  0  0  0  0  0
    1.9747  -16.7738   -0.0000 C   0  0  0  0  0  0  0  0  0  0  0  0
   -0.6233  -16.7738   -0.0000 C   0  0  0  0  0  0  0  0  0  0  0  0
    3.2738  -13.0238   -0.0000 O   0  0  0  0  0  0  0  0  0  0  0  0
    4.5728  -15.2738   -0.0000 O   0  0  0  0  0  0  0  0  0  0  0  0
    0.6757  -17.5238   -0.0000 C   0  0  0  0  0  0  0  0  0  0  0  0
    0.6757  -19.0238   -0.0000 N   0  0  0  0  0  0  0  0  0  0  0  0
    1.9747  -19.7738   -0.0000 O   0  0  0  0  0  0  0  0  0  0  0  0
   -0.6233  -19.7738   -0.0000 O   0  0  0  0  0  0  0  0  0  0  0  0
  1  2  2  0  0  0  0
  1  3  2  0  0  0  0
  1  4  1  0  0  0  0
  1  5  1  0  0  0  0
  4  6  1  0  0  0  0
  5  7  2  0  0  0  0
  5  8  1  0  0  0  0
  6  9  1  0  0  0  0
  7 10  1  0  0  0  0
  7 11  1  0  0  0  0
  8 12  2  0  0  0  0
  9 13  2  0  0  0  0
  9 14  1  0  0  0  0
 10 15  2  0  0  0  0
 10 16  1  0  0  0  0
 11 17  2  0  0  0  0
 14 18  2  0  0  0  0
 14 19  1  0  0  0  0
 17 20  1  0  0  0  0
 18 21  1  0  0  0  0
 19 22  2  0  0  0  0
 20 23  2  0  0  0  0
 20 24  1  0  0  0  0
 21 25  2  0  0  0  0
 21 26  1  0  0  0  0
 25 27  1  0  0  0  0
 26 28  2  0  0  0  0
 26 29  1  0  0  0  0
 29 30  1  0  0  0  0
 29 31  1  0  0  0  0
 30 32  2  0  0  0  0
 30 33  1  0  0  0  0
 31 34  1  0  0  0  0
 31 35  2  0  0  0  0
 32 36  1  0  0  0  0
 33 37  2  0  0  0  0
 34 38  2  0  0  0  0
 34 39  1  0  0  0  0
 35 40  1  0  0  0  0
 36 41  2  0  0  0  0
 38 42  1  0  0  0  0
 39 43  2  0  0  0  0
 41 44  1  0  0  0  0
 42 45  2  0  0  0  0
 43 46  1  0  0  0  0
 46 47  2  0  0  0  0
 46 48  1  0  0  0  0
 48 49  1  0  0  0  0
 49 50  1  0  0  0  0
 50 51  2  0  0  0  0
 50 52  2  0  0  0  0
 50 53  1  0  0  0  0
 53 54  2  0  0  0  0
 53 55  1  0  0  0  0
 54 56  1  0  0  0  0
 54 57  1  0  0  0  0
 55 58  2  0  0  0  0
 56 59  2  0  0  0  0
 56 60  1  0  0  0  0
 57 61  2  0  0  0  0
 61 62  1  0  0  0  0
 62 63  2  0  0  0  0
 62 64  1  0  0  0  0
 12 17  1  0  0  0  0
 22 25  1  0  0  0  0
 27 28  1  0  0  0  0
 37 41  1  0  0  0  0
 38 40  1  0  0  0  0
 43 45  1  0  0  0  0
 58 61  1  0  0  0  0
M  CHG  8  10   1  16  -1  20   1  24  -1  56   1  60  -1  62   1  64  -1
M  END
>  <S/N>
510

>  <Compound ID>
C_527

>  <PubChem CID>
155541736

>  <Isomeric SMILES>
CC1=CC=C(C=C1)C(C2=CNC3=C2C=C(C=C3)C(=O)NNS(=O)(=O)C4=C(C=C(C=C4)[N+](=O)[O-])[N+](=O)[O-])C5=CNC6=C5C=C(C=C6)C(=O)NNS(=O)(=O)C7=C(C=C(C=C7)[N+](=O)[O-])[N+](=O)[O-]

>  <IC50 (�M)>
0.5

>  <pIC50>
6.3

$$$$
C_528
Actelion Java MolfileCreator 1.0

 39 43  0  0  0  0  0  0  0  0999 V2000
    6.9872   -7.1837   -0.0000 O   0  0  0  0  0  0  0  0  0  0  0  0
    5.9927   -7.0792   -0.0000 C   0  0  0  0  0  0  0  0  0  0  0  0
    5.5859   -6.1656   -0.0000 C   0  0  0  0  0  0  0  0  0  0  0  0
    5.4049   -7.8882   -0.0000 C   0  0  0  0  0  0  0  0  0  0  0  0
    4.5914   -6.0611   -0.0000 C   0  0  0  0  0  0  0  0  0  0  0  0
    6.1737   -5.3566   -0.0000 C   0  0  0  0  0  0  0  0  0  0  0  0
    4.4104   -7.7837   -0.0000 C   0  0  0  0  0  0  0  0  0  0  0  0
    5.8116   -8.8017   -0.0000 C   0  0  0  0  0  0  0  0  0  0  0  0
    4.0036   -6.8701   -0.0000 O   0  0  0  0  0  0  0  0  0  0  0  0
    4.1847   -5.1476   -0.0000 C   0  0  0  0  0  0  0  0  0  0  0  0
    7.1682   -5.4611   -0.0000 O   0  0  0  0  0  0  0  0  0  0  0  0
    5.7670   -4.4431   -0.0000 C   0  0  0  0  0  0  0  0  0  0  0  0
    3.8226   -8.5927   -0.0000 C   0  0  0  0  0  0  0  0  0  0  0  0
    5.2238   -9.6108   -0.0000 C   0  0  0  0  0  0  0  0  0  0  0  0
    4.7725   -4.3385   -0.0000 C   0  0  0  0  0  0  0  0  0  0  0  0
    4.2293   -9.5062   -0.0000 C   0  0  0  0  0  0  0  0  0  0  0  0
    5.6306  -10.5243   -0.0000 O   0  0  0  0  0  0  0  0  0  0  0  0
    4.3657   -3.4250   -0.0000 O   0  0  0  0  0  0  0  0  0  0  0  0
    6.6251  -10.6288   -0.0000 C   0  0  0  0  0  0  0  0  0  0  0  0
    4.9535   -2.6160   -0.0000 C   0  0  0  0  0  0  0  0  0  0  0  0
    4.5468   -1.7024   -0.0000 C   0  0  0  0  0  0  0  0  0  0  0  0
    5.0468   -0.8364   -0.0000 N   0  0  0  0  0  0  0  0  0  0  0  0
    3.5686   -1.4945   -0.0000 C   0  0  0  0  0  0  0  0  0  0  0  0
    4.3776   -0.0933   -0.0000 N   0  0  0  0  0  0  0  0  0  0  0  0
    3.4641   -0.5000   -0.0000 N   0  0  0  0  0  0  0  0  0  0  0  0
    2.5981   -0.0000   -0.0000 C   0  0  0  0  0  0  0  0  0  0  0  0
    1.7321   -0.5000   -0.0000 C   0  0  0  0  0  0  0  0  0  0  0  0
    1.7321   -1.5000   -0.0000 O   0  0  0  0  0  0  0  0  0  0  0  0
    0.8660   -0.0000   -0.0000 N   0  0  0  0  0  0  0  0  0  0  0  0
    0.0000   -0.5000   -0.0000 C   0  0  0  0  0  0  0  0  0  0  0  0
   -0.8660    0.0000   -0.0000 C   0  0  0  0  0  0  0  0  0  0  0  0
   -0.0000   -1.5000   -0.0000 C   0  0  0  0  0  0  0  0  0  0  0  0
   -0.8660    1.0000   -0.0000 O   0  0  0  0  0  0  0  0  0  0  0  0
   -1.7321   -0.5000   -0.0000 C   0  0  0  0  0  0  0  0  0  0  0  0
   -0.8660   -2.0000   -0.0000 C   0  0  0  0  0  0  0  0  0  0  0  0
   -1.7321    1.5000   -0.0000 C   0  0  0  0  0  0  0  0  0  0  0  0
   -1.7321   -1.5000   -0.0000 C   0  0  0  0  0  0  0  0  0  0  0  0
   -2.5981   -2.0000   -0.0000 O   0  0  0  0  0  0  0  0  0  0  0  0
   -2.5981   -3.0000   -0.0000 C   0  0  0  0  0  0  0  0  0  0  0  0
  1  2  2  0  0  0  0
  2  3  1  0  0  0  0
  2  4  1  0  0  0  0
  3  5  2  0  0  0  0
  3  6  1  0  0  0  0
  4  7  2  0  0  0  0
  4  8  1  0  0  0  0
  5  9  1  0  0  0  0
  5 10  1  0  0  0  0
  6 11  1  0  0  0  0
  6 12  2  0  0  0  0
  7 13  1  0  0  0  0
  8 14  2  0  0  0  0
 10 15  2  0  0  0  0
 13 16  2  0  0  0  0
 14 17  1  0  0  0  0
 15 18  1  0  0  0  0
 17 19  1  0  0  0  0
 18 20  1  0  0  0  0
 20 21  1  0  0  0  0
 21 22  1  0  0  0  0
 21 23  2  0  0  0  0
 22 24  2  0  0  0  0
 23 25  1  0  0  0  0
 25 26  1  0  0  0  0
 26 27  1  0  0  0  0
 27 28  2  0  0  0  0
 27 29  1  0  0  0  0
 29 30  1  0  0  0  0
 30 31  2  0  0  0  0
 30 32  1  0  0  0  0
 31 33  1  0  0  0  0
 31 34  1  0  0  0  0
 32 35  2  0  0  0  0
 33 36  1  0  0  0  0
 34 37  2  0  0  0  0
 37 38  1  0  0  0  0
 38 39  1  0  0  0  0
  7  9  1  0  0  0  0
 12 15  1  0  0  0  0
 14 16  1  0  0  0  0
 24 25  1  0  0  0  0
 35 37  1  0  0  0  0
M  END
>  <S/N>
511

>  <Compound ID>
C_528

>  <PubChem CID>
155542053

>  <Isomeric SMILES>
COC1=CC2=C(C=C1)OC3=CC(=CC(=C3C2=O)O)OCC4=CN(N=N4)CC(=O)NC5=C(C=C(C=C5)OC)OC

>  <IC50 (�M)>
8.31

>  <pIC50>
5.08

$$$$
C_529
Actelion Java MolfileCreator 1.0

 28 31  0  0  1  0  0  0  0  0999 V2000
   10.3923   -0.7500   -0.0000 O   0  0  0  0  0  0  0  0  0  0  0  0
    9.0933   -0.0000   -0.0000 N   0  0  0  0  0  0  0  0  0  0  0  0
    9.0933    1.5000   -0.0000 O   0  0  0  0  0  0  0  0  0  0  0  0
    7.7942   -0.7500   -0.0000 C   0  0  0  0  0  0  0  0  0  0  0  0
    6.4952   -0.0000   -0.0000 C   0  0  0  0  0  0  0  0  0  0  0  0
    7.7942   -2.2500   -0.0000 C   0  0  0  0  0  0  0  0  0  0  0  0
    5.1962   -0.7500   -0.0000 C   0  0  0  0  0  0  0  0  0  0  0  0
    6.4952   -3.0000   -0.0000 C   0  0  0  0  0  0  0  0  0  0  0  0
    5.1962   -2.2500   -0.0000 C   0  0  0  0  0  0  0  0  0  0  0  0
    3.8971   -0.0000   -0.0000 C   0  0  0  0  0  0  0  0  0  0  0  0
    3.8971    1.5000   -0.0000 C   0  0  0  0  0  0  0  0  0  0  0  0
    2.5981   -0.7500   -0.0000 C   0  0  0  0  0  0  0  0  0  0  0  0
    5.1106    2.3817   -0.0000 C   0  0  0  0  0  0  0  0  0  0  0  0
    2.6836    2.3817   -0.0000 C   0  0  0  0  0  0  0  0  0  0  0  0
    1.2990   -0.0000   -0.0000 C   0  0  0  0  0  0  0  0  0  0  0  0
    4.6471    3.8083   -0.0000 C   0  0  0  0  0  0  0  0  0  0  0  0
    6.5779    2.0698   -0.0000 C   0  0  0  0  0  0  0  0  0  0  0  0
    3.1471    3.8083   -0.0000 N   0  0  0  0  0  0  0  0  0  0  0  0
    1.2990    1.5000   -0.0000 O   0  0  0  0  0  0  0  0  0  0  0  0
    0.0000   -0.7500   -0.0000 C   0  0  0  0  0  0  0  0  0  0  0  0
    5.6508    4.9230   -0.0000 C   0  0  0  0  0  0  0  0  0  0  0  0
    7.5816    3.1845   -0.0000 C   0  0  0  0  0  0  0  0  0  0  0  0
   -1.2990    0.0000   -0.0000 C   0  0  0  0  0  0  0  0  0  0  0  0
   -0.0000   -2.2500   -0.0000 C   0  0  0  0  0  0  0  0  0  0  0  0
    7.1180    4.6111   -0.0000 C   0  0  0  0  0  0  0  0  0  0  0  0
   -2.5981   -0.7500   -0.0000 C   0  0  0  0  0  0  0  0  0  0  0  0
   -1.2990   -3.0000   -0.0000 C   0  0  0  0  0  0  0  0  0  0  0  0
   -2.5981   -2.2500   -0.0000 C   0  0  0  0  0  0  0  0  0  0  0  0
  1  2  2  0  0  0  0
  2  3  1  0  0  0  0
  2  4  1  0  0  0  0
  4  5  2  0  0  0  0
  4  6  1  0  0  0  0
  5  7  1  0  0  0  0
  6  8  2  0  0  0  0
  7  9  2  0  0  0  0
  7 10  1  0  0  0  0
 10 11  1  0  0  0  0
 10 12  1  6  0  0  0
 11 13  1  0  0  0  0
 11 14  2  0  0  0  0
 12 15  1  0  0  0  0
 13 16  2  0  0  0  0
 13 17  1  0  0  0  0
 14 18  1  0  0  0  0
 15 19  2  0  0  0  0
 15 20  1  0  0  0  0
 16 21  1  0  0  0  0
 17 22  2  0  0  0  0
 20 23  2  0  0  0  0
 20 24  1  0  0  0  0
 21 25  2  0  0  0  0
 23 26  1  0  0  0  0
 24 27  2  0  0  0  0
 26 28  2  0  0  0  0
  8  9  1  0  0  0  0
 16 18  1  0  0  0  0
 22 25  1  0  0  0  0
 27 28  1  0  0  0  0
M  CHG  2   2   1   3  -1
M  END
>  <S/N>
512

>  <Compound ID>
C_529

>  <PubChem CID>
155542409

>  <Isomeric SMILES>
C1=CC=C(C=C1)C(=O)C[C@@H](C2=CC(=CC=C2)[N+](=O)[O-])C3=CNC4=CC=CC=C43

>  <IC50 (�M)>
4.3

>  <pIC50>
5.37

$$$$
C_530
Actelion Java MolfileCreator 1.0

 28 31  0  0  0  0  0  0  0  0999 V2000
    8.9030   -6.0260   -0.0000 Br  0  0  0  0  0  0  0  0  0  0  0  0
    8.7984   -5.0315   -0.0000 C   0  0  0  0  0  0  0  0  0  0  0  0
    7.8849   -4.6247   -0.0000 C   0  0  0  0  0  0  0  0  0  0  0  0
    9.6075   -4.4437   -0.0000 C   0  0  0  0  0  0  0  0  0  0  0  0
    7.7804   -3.6302   -0.0000 C   0  0  0  0  0  0  0  0  0  0  0  0
    6.9714   -5.0315   -0.0000 C   0  0  0  0  0  0  0  0  0  0  0  0
    9.5029   -3.4492   -0.0000 C   0  0  0  0  0  0  0  0  0  0  0  0
    8.5894   -3.0424   -0.0000 N   0  0  0  0  0  0  0  0  0  0  0  0
    6.8022   -3.4223   -0.0000 N   0  0  0  0  0  0  0  0  0  0  0  0
    6.3022   -4.2883   -0.0000 C   0  0  0  0  0  0  0  0  0  0  0  0
    6.3955   -2.5088   -0.0000 C   0  0  0  0  0  0  0  0  0  0  0  0
    6.9833   -1.6997   -0.0000 C   0  0  0  0  0  0  0  0  0  0  0  0
    5.4010   -2.4042   -0.0000 C   0  0  0  0  0  0  0  0  0  0  0  0
    6.5765   -0.7862   -0.0000 C   0  0  0  0  0  0  0  0  0  0  0  0
    4.9942   -1.4907   -0.0000 C   0  0  0  0  0  0  0  0  0  0  0  0
    5.5820   -0.6817   -0.0000 C   0  0  0  0  0  0  0  0  0  0  0  0
    5.1753    0.2319   -0.0000 C   0  0  0  0  0  0  0  0  0  0  0  0
    4.1808    0.3364   -0.0000 C   0  0  0  0  0  0  0  0  0  0  0  0
    3.6808    1.2024   -0.0000 S   0  0  0  0  0  0  0  0  0  0  0  0
    3.5116   -0.4067   -0.0000 C   0  0  0  0  0  0  0  0  0  0  0  0
    2.7026    0.9945   -0.0000 C   0  0  0  0  0  0  0  0  0  0  0  0
    3.7195   -1.3849   -0.0000 O   0  0  0  0  0  0  0  0  0  0  0  0
    2.5981   -0.0000   -0.0000 N   0  0  0  0  0  0  0  0  0  0  0  0
    1.9595    1.6637   -0.0000 O   0  0  0  0  0  0  0  0  0  0  0  0
    1.7321   -0.5000   -0.0000 C   0  0  0  0  0  0  0  0  0  0  0  0
    0.8660   -0.0000   -0.0000 C   0  0  0  0  0  0  0  0  0  0  0  0
    0.8660    1.0000   -0.0000 O   0  0  0  0  0  0  0  0  0  0  0  0
    0.0000   -0.5000   -0.0000 O   0  0  0  0  0  0  0  0  0  0  0  0
  1  2  1  0  0  0  0
  2  3  2  0  0  0  0
  2  4  1  0  0  0  0
  3  5  1  0  0  0  0
  3  6  1  0  0  0  0
  4  7  2  0  0  0  0
  5  8  2  0  0  0  0
  5  9  1  0  0  0  0
  6 10  2  0  0  0  0
  9 11  1  0  0  0  0
 11 12  2  0  0  0  0
 11 13  1  0  0  0  0
 12 14  1  0  0  0  0
 13 15  2  0  0  0  0
 14 16  2  0  0  0  0
 16 17  1  0  0  0  0
 17 18  2  0  0  0  0
 18 19  1  0  0  0  0
 18 20  1  0  0  0  0
 19 21  1  0  0  0  0
 20 22  2  0  0  0  0
 20 23  1  0  0  0  0
 21 24  2  0  0  0  0
 23 25  1  0  0  0  0
 25 26  1  0  0  0  0
 26 27  2  0  0  0  0
 26 28  1  0  0  0  0
  7  8  1  0  0  0  0
  9 10  1  0  0  0  0
 15 16  1  0  0  0  0
 21 23  1  0  0  0  0
M  END
>  <S/N>
513

>  <Compound ID>
C_530

>  <PubChem CID>
155542582

>  <Isomeric SMILES>
C1=CC(=CC=C1/C=C/2\C(=O)N(C(=O)S2)CC(=O)O)N3C=CC4=C(C=CN=C43)Br

>  <IC50 (�M)>
0.55

>  <pIC50>
6.26

$$$$
C_531
Actelion Java MolfileCreator 1.0

 32 36  0  0  0  0  0  0  0  0999 V2000
    2.7221    1.2171   -0.0000 O   0  0  0  0  0  0  0  0  0  0  0  0
    2.5981   -0.0000   -0.0000 C   0  0  0  0  0  0  0  0  0  0  0  0
    3.4641   -0.5000   -0.0000 O   0  0  0  0  0  0  0  0  0  0  0  0
    1.7321   -0.5000   -0.0000 C   0  0  0  0  0  0  0  0  0  0  0  0
    3.4641   -1.5000   -0.0000 C   0  0  0  0  0  0  0  0  0  0  0  0
    1.7321   -1.5000   -0.0000 C   0  0  0  0  0  0  0  0  0  0  0  0
    0.8660   -0.0000   -0.0000 C   0  0  0  0  0  0  0  0  0  0  0  0
    2.5981   -2.0000   -0.0000 C   0  0  0  0  0  0  0  0  0  0  0  0
    4.3301   -2.0000   -0.0000 C   0  0  0  0  0  0  0  0  0  0  0  0
    0.8660   -2.0000   -0.0000 N   0  0  0  0  0  0  0  0  0  0  0  0
    0.8660    1.0000   -0.0000 C   0  0  0  0  0  0  0  0  0  0  0  0
    0.0000   -0.5000   -0.0000 C   0  0  0  0  0  0  0  0  0  0  0  0
    2.5981   -3.0000   -0.0000 C   0  0  0  0  0  0  0  0  0  0  0  0
    4.3301   -3.0000   -0.0000 C   0  0  0  0  0  0  0  0  0  0  0  0
    1.7321    1.5000   -0.0000 C   0  0  0  0  0  0  0  0  0  0  0  0
    0.0000    1.5000   -0.0000 C   0  0  0  0  0  0  0  0  0  0  0  0
   -0.8660    0.0000   -0.0000 C   0  0  0  0  0  0  0  0  0  0  0  0
   -0.0000   -1.5000   -0.0000 C   0  0  0  0  0  0  0  0  0  0  0  0
    3.4641   -3.5000   -0.0000 C   0  0  0  0  0  0  0  0  0  0  0  0
    2.3998    1.0202   -0.0000 O   0  0  0  0  0  0  0  0  0  0  0  0
    1.7321    2.5000   -0.0000 O   0  0  0  0  0  0  0  0  0  0  0  0
   -0.8660    1.0000   -0.0000 N   0  0  0  0  0  0  0  0  0  0  0  0
   -0.0000    2.5000   -0.0000 C   0  0  0  0  0  0  0  0  0  0  0  0
   -1.7321   -0.5000   -0.0000 C   0  0  0  0  0  0  0  0  0  0  0  0
   -0.8660   -2.0000   -0.0000 C   0  0  0  0  0  0  0  0  0  0  0  0
    0.8660    3.0000   -0.0000 C   0  0  0  0  0  0  0  0  0  0  0  0
   -0.8660    3.0000   -0.0000 C   0  0  0  0  0  0  0  0  0  0  0  0
   -1.7321   -1.5000   -0.0000 C   0  0  0  0  0  0  0  0  0  0  0  0
   -2.5981    0.0000   -0.0000 C   0  0  0  0  0  0  0  0  0  0  0  0
    0.8660    4.0000   -0.0000 C   0  0  0  0  0  0  0  0  0  0  0  0
   -0.8660    4.0000   -0.0000 C   0  0  0  0  0  0  0  0  0  0  0  0
    0.0000    4.5000   -0.0000 C   0  0  0  0  0  0  0  0  0  0  0  0
  1  2  2  0  0  0  0
  2  3  1  0  0  0  0
  2  4  1  0  0  0  0
  3  5  1  0  0  0  0
  4  6  2  0  0  0  0
  4  7  1  0  0  0  0
  5  8  2  0  0  0  0
  5  9  1  0  0  0  0
  6 10  1  0  0  0  0
  7 11  1  0  0  0  0
  7 12  1  0  0  0  0
  8 13  1  0  0  0  0
  9 14  2  0  0  0  0
 11 15  1  0  0  0  0
 11 16  2  0  0  0  0
 12 17  2  0  0  0  0
 12 18  1  0  0  0  0
 13 19  2  0  0  0  0
 15 20  2  0  0  0  0
 15 21  1  0  0  0  0
 16 22  1  0  0  0  0
 16 23  1  0  0  0  0
 17 24  1  0  0  0  0
 18 25  2  0  0  0  0
 21 26  1  0  0  0  0
 23 27  2  0  0  0  0
 24 28  2  0  0  0  0
 24 29  1  0  0  0  0
 26 30  2  0  0  0  0
 27 31  1  0  0  0  0
 30 32  1  0  0  0  0
  6  8  1  0  0  0  0
 14 19  1  0  0  0  0
 23 26  1  0  0  0  0
 25 28  1  0  0  0  0
 31 32  2  0  0  0  0
M  END
>  <S/N>
514

>  <Compound ID>
C_531

>  <PubChem CID>
155542676

>  <Isomeric SMILES>
CC1=CC(=CC=C1)C(C2=C(C3=CC=CC=C3OC2=O)N)C4=C(C5=CC=CC=C5OC4=O)N

>  <IC50 (�M)>
20

>  <pIC50>
4.7

$$$$
C_532
Actelion Java MolfileCreator 1.0

 35 39  0  0  0  0  0  0  0  0999 V2000
    4.3301   -0.0000   -0.0000 Cl  0  0  0  0  0  0  0  0  0  0  0  0
    3.4641   -0.5000   -0.0000 C   0  0  0  0  0  0  0  0  0  0  0  0
    2.5981   -0.0000   -0.0000 C   0  0  0  0  0  0  0  0  0  0  0  0
    3.4641   -1.5000   -0.0000 C   0  0  0  0  0  0  0  0  0  0  0  0
    2.5981    1.0000   -0.0000 O   0  0  0  0  0  0  0  0  0  0  0  0
    1.7321   -0.5000   -0.0000 C   0  0  0  0  0  0  0  0  0  0  0  0
    2.5981   -2.0000   -0.0000 C   0  0  0  0  0  0  0  0  0  0  0  0
    0.8660   -0.0000   -0.0000 O   0  0  0  0  0  0  0  0  0  0  0  0
    1.7321   -1.5000   -0.0000 C   0  0  0  0  0  0  0  0  0  0  0  0
    2.5981   -3.0000   -0.0000 C   0  0  0  0  0  0  0  0  0  0  0  0
    0.0000   -0.5000   -0.0000 C   0  0  0  0  0  0  0  0  0  0  0  0
    1.7321   -3.5000   -0.0000 C   0  0  0  0  0  0  0  0  0  0  0  0
    3.4641   -3.5000   -0.0000 C   0  0  0  0  0  0  0  0  0  0  0  0
    1.7321   -4.5000   -0.0000 C   0  0  0  0  0  0  0  0  0  0  0  0
    0.8660   -3.0000   -0.0000 C   0  0  0  0  0  0  0  0  0  0  0  0
    3.4641   -4.5000   -0.0000 C   0  0  0  0  0  0  0  0  0  0  0  0
    4.3301   -3.0000   -0.0000 C   0  0  0  0  0  0  0  0  0  0  0  0
    2.7481   -5.2000   -0.0000 O   0  0  0  0  0  0  0  0  0  0  0  0
    0.8660   -5.0000   -0.0000 O   0  0  0  0  0  0  0  0  0  0  0  0
    0.8660   -2.0000   -0.0000 N   0  0  0  0  0  0  0  0  0  0  0  0
   -0.0000   -3.5000   -0.0000 C   0  0  0  0  0  0  0  0  0  0  0  0
    2.7173   -4.8269   -0.0000 O   0  0  0  0  0  0  0  0  0  0  0  0
    4.3301   -5.0000   -0.0000 O   0  0  0  0  0  0  0  0  0  0  0  0
    4.3301   -2.0000   -0.0000 N   0  0  0  0  0  0  0  0  0  0  0  0
    5.1962   -3.5000   -0.0000 C   0  0  0  0  0  0  0  0  0  0  0  0
   -0.0000   -4.5000   -0.0000 C   0  0  0  0  0  0  0  0  0  0  0  0
   -0.8660   -3.0000   -0.0000 C   0  0  0  0  0  0  0  0  0  0  0  0
    5.1962   -4.5000   -0.0000 C   0  0  0  0  0  0  0  0  0  0  0  0
    6.0622   -3.0000   -0.0000 C   0  0  0  0  0  0  0  0  0  0  0  0
   -0.8660   -5.0000   -0.0000 C   0  0  0  0  0  0  0  0  0  0  0  0
   -1.7321   -3.5000   -0.0000 C   0  0  0  0  0  0  0  0  0  0  0  0
    6.0622   -5.0000   -0.0000 C   0  0  0  0  0  0  0  0  0  0  0  0
    6.9282   -3.5000   -0.0000 C   0  0  0  0  0  0  0  0  0  0  0  0
   -1.7321   -4.5000   -0.0000 C   0  0  0  0  0  0  0  0  0  0  0  0
    6.9282   -4.5000   -0.0000 C   0  0  0  0  0  0  0  0  0  0  0  0
  1  2  1  0  0  0  0
  2  3  2  0  0  0  0
  2  4  1  0  0  0  0
  3  5  1  0  0  0  0
  3  6  1  0  0  0  0
  4  7  2  0  0  0  0
  6  8  1  0  0  0  0
  6  9  2  0  0  0  0
  7 10  1  0  0  0  0
  8 11  1  0  0  0  0
 10 12  1  0  0  0  0
 10 13  1  0  0  0  0
 12 14  1  0  0  0  0
 12 15  2  0  0  0  0
 13 16  1  0  0  0  0
 13 17  2  0  0  0  0
 14 18  2  0  0  0  0
 14 19  1  0  0  0  0
 15 20  1  0  0  0  0
 15 21  1  0  0  0  0
 16 22  2  0  0  0  0
 16 23  1  0  0  0  0
 17 24  1  0  0  0  0
 17 25  1  0  0  0  0
 19 26  1  0  0  0  0
 21 27  2  0  0  0  0
 23 28  1  0  0  0  0
 25 29  2  0  0  0  0
 26 30  2  0  0  0  0
 27 31  1  0  0  0  0
 28 32  2  0  0  0  0
 29 33  1  0  0  0  0
 30 34  1  0  0  0  0
 32 35  1  0  0  0  0
  7  9  1  0  0  0  0
 21 26  1  0  0  0  0
 25 28  1  0  0  0  0
 31 34  2  0  0  0  0
 33 35  2  0  0  0  0
M  END
>  <S/N>
515

>  <Compound ID>
C_532

>  <PubChem CID>
155542741

>  <Isomeric SMILES>
COC1=C(C(=CC(=C1)C(C2=C(C3=CC=CC=C3OC2=O)N)C4=C(C5=CC=CC=C5OC4=O)N)Cl)O

>  <IC50 (�M)>
20

>  <pIC50>
4.7

$$$$
C_533
Actelion Java MolfileCreator 1.0

 33 36  0  0  0  0  0  0  0  0999 V2000
   10.1904   -0.5093   -0.0000 Cl  0  0  0  0  0  0  0  0  0  0  0  0
   10.7782   -1.3183   -0.0000 C   0  0  0  0  0  0  0  0  0  0  0  0
   10.3714   -2.2319   -0.0000 C   0  0  0  0  0  0  0  0  0  0  0  0
   11.7727   -1.2138   -0.0000 C   0  0  0  0  0  0  0  0  0  0  0  0
    9.3769   -2.3364   -0.0000 C   0  0  0  0  0  0  0  0  0  0  0  0
   10.9592   -3.0409   -0.0000 C   0  0  0  0  0  0  0  0  0  0  0  0
   12.3605   -2.0228   -0.0000 C   0  0  0  0  0  0  0  0  0  0  0  0
    8.7078   -1.5933   -0.0000 O   0  0  0  0  0  0  0  0  0  0  0  0
    8.8769   -3.2024   -0.0000 N   0  0  0  0  0  0  0  0  0  0  0  0
   11.9537   -2.9364   -0.0000 C   0  0  0  0  0  0  0  0  0  0  0  0
    7.7942   -2.0000   -0.0000 C   0  0  0  0  0  0  0  0  0  0  0  0
    7.8988   -2.9945   -0.0000 N   0  0  0  0  0  0  0  0  0  0  0  0
    6.9282   -1.5000   -0.0000 C   0  0  0  0  0  0  0  0  0  0  0  0
    6.9282   -0.5000   -0.0000 C   0  0  0  0  0  0  0  0  0  0  0  0
    6.0622   -2.0000   -0.0000 C   0  0  0  0  0  0  0  0  0  0  0  0
    6.0622   -0.0000   -0.0000 C   0  0  0  0  0  0  0  0  0  0  0  0
    5.1962   -1.5000   -0.0000 C   0  0  0  0  0  0  0  0  0  0  0  0
    5.1962   -0.5000   -0.0000 C   0  0  0  0  0  0  0  0  0  0  0  0
    4.3301   -0.0000   -0.0000 C   0  0  0  0  0  0  0  0  0  0  0  0
    4.3301    1.0000   -0.0000 O   0  0  0  0  0  0  0  0  0  0  0  0
    3.4641   -0.5000   -0.0000 N   0  0  0  0  0  0  0  0  0  0  0  0
    2.5981   -0.0000   -0.0000 N   0  0  0  0  0  0  0  0  0  0  0  0
    1.7321   -0.5000   -0.0000 C   0  0  0  0  0  0  0  0  0  0  0  0
    1.7321   -1.5000   -0.0000 S   0  0  0  0  0  0  0  0  0  0  0  0
    0.8660   -0.0000   -0.0000 N   0  0  0  0  0  0  0  0  0  0  0  0
    0.0000   -0.5000   -0.0000 C   0  0  0  0  0  0  0  0  0  0  0  0
   -0.8660    0.0000   -0.0000 C   0  0  0  0  0  0  0  0  0  0  0  0
   -0.0000   -1.5000   -0.0000 C   0  0  0  0  0  0  0  0  0  0  0  0
   -1.7321   -0.5000   -0.0000 C   0  0  0  0  0  0  0  0  0  0  0  0
   -0.8660   -2.0000   -0.0000 C   0  0  0  0  0  0  0  0  0  0  0  0
   -1.7321   -1.5000   -0.0000 C   0  0  0  0  0  0  0  0  0  0  0  0
   -2.5981   -2.0000   -0.0000 O   0  0  0  0  0  0  0  0  0  0  0  0
   -2.5981   -3.0000   -0.0000 C   0  0  0  0  0  0  0  0  0  0  0  0
  1  2  1  0  0  0  0
  2  3  2  0  0  0  0
  2  4  1  0  0  0  0
  3  5  1  0  0  0  0
  3  6  1  0  0  0  0
  4  7  2  0  0  0  0
  5  8  1  0  0  0  0
  5  9  2  0  0  0  0
  6 10  2  0  0  0  0
  8 11  1  0  0  0  0
  9 12  1  0  0  0  0
 11 13  1  0  0  0  0
 13 14  2  0  0  0  0
 13 15  1  0  0  0  0
 14 16  1  0  0  0  0
 15 17  2  0  0  0  0
 16 18  2  0  0  0  0
 18 19  1  0  0  0  0
 19 20  2  0  0  0  0
 19 21  1  0  0  0  0
 21 22  1  0  0  0  0
 22 23  1  0  0  0  0
 23 24  2  0  0  0  0
 23 25  1  0  0  0  0
 25 26  1  0  0  0  0
 26 27  2  0  0  0  0
 26 28  1  0  0  0  0
 27 29  1  0  0  0  0
 28 30  2  0  0  0  0
 29 31  2  0  0  0  0
 31 32  1  0  0  0  0
 32 33  1  0  0  0  0
  7 10  1  0  0  0  0
 11 12  2  0  0  0  0
 17 18  1  0  0  0  0
 30 31  1  0  0  0  0
M  END
>  <S/N>
516

>  <Compound ID>
C_533

>  <PubChem CID>
155543251

>  <Isomeric SMILES>
COC1=CC=C(C=C1)NC(=S)NNC(=O)C2=CC=C(C=C2)C3=NN=C(O3)C4=CC=CC=C4Cl

>  <IC50 (�M)>
0.4

>  <pIC50>
6.4

$$$$
C_534
Actelion Java MolfileCreator 1.0

 33 37  0  0  0  0  0  0  0  0999 V2000
    2.7026    0.9945   -0.0000 S   0  0  0  0  0  0  0  0  0  0  0  0
    2.5981   -0.0000   -0.0000 C   0  0  0  0  0  0  0  0  0  0  0  0
    3.6808    1.2024   -0.0000 C   0  0  0  0  0  0  0  0  0  0  0  0
    3.5116   -0.4067   -0.0000 N   0  0  0  0  0  0  0  0  0  0  0  0
    1.7321   -0.5000   -0.0000 N   0  0  0  0  0  0  0  0  0  0  0  0
    4.1808    0.3364   -0.0000 C   0  0  0  0  0  0  0  0  0  0  0  0
    0.8660   -0.0000   -0.0000 N   0  0  0  0  0  0  0  0  0  0  0  0
    5.1753    0.2319   -0.0000 C   0  0  0  0  0  0  0  0  0  0  0  0
    0.0000   -0.5000   -0.0000 C   0  0  0  0  0  0  0  0  0  0  0  0
    5.5820   -0.6817   -0.0000 C   0  0  0  0  0  0  0  0  0  0  0  0
    5.7631    1.0409   -0.0000 C   0  0  0  0  0  0  0  0  0  0  0  0
   -0.9135   -0.0933   -0.0000 C   0  0  0  0  0  0  0  0  0  0  0  0
   -0.1045   -1.4945   -0.0000 C   0  0  0  0  0  0  0  0  0  0  0  0
    6.5765   -0.7862   -0.0000 C   0  0  0  0  0  0  0  0  0  0  0  0
    6.7576    0.9364   -0.0000 C   0  0  0  0  0  0  0  0  0  0  0  0
   -1.1215    0.8849   -0.0000 O   0  0  0  0  0  0  0  0  0  0  0  0
   -1.5827   -0.8364   -0.0000 N   0  0  0  0  0  0  0  0  0  0  0  0
   -1.0827   -1.7024   -0.0000 C   0  0  0  0  0  0  0  0  0  0  0  0
    0.5646   -2.2377   -0.0000 C   0  0  0  0  0  0  0  0  0  0  0  0
    7.1643    0.0228   -0.0000 C   0  0  0  0  0  0  0  0  0  0  0  0
   -2.5772   -0.7319   -0.0000 C   0  0  0  0  0  0  0  0  0  0  0  0
   -1.3917   -2.6535   -0.0000 C   0  0  0  0  0  0  0  0  0  0  0  0
    0.2556   -3.1887   -0.0000 C   0  0  0  0  0  0  0  0  0  0  0  0
    8.1588   -0.0817   -0.0000 C   0  0  0  0  0  0  0  0  0  0  0  0
   -3.1650   -1.5409   -0.0000 C   0  0  0  0  0  0  0  0  0  0  0  0
   -0.7226   -3.3966   -0.0000 C   0  0  0  0  0  0  0  0  0  0  0  0
    0.9247   -3.9319   -0.0000 C   0  0  0  0  0  0  0  0  0  0  0  0
   -4.1595   -1.4364   -0.0000 C   0  0  0  0  0  0  0  0  0  0  0  0
   -2.7582   -2.4544   -0.0000 C   0  0  0  0  0  0  0  0  0  0  0  0
   -4.5662   -0.5228   -0.0000 F   0  0  0  0  0  0  0  0  0  0  0  0
   -4.7473   -2.2454   -0.0000 C   0  0  0  0  0  0  0  0  0  0  0  0
   -3.3460   -3.2635   -0.0000 C   0  0  0  0  0  0  0  0  0  0  0  0
   -4.3406   -3.1589   -0.0000 C   0  0  0  0  0  0  0  0  0  0  0  0
  1  2  1  0  0  0  0
  1  3  1  0  0  0  0
  2  4  2  0  0  0  0
  2  5  1  0  0  0  0
  3  6  2  0  0  0  0
  5  7  2  3  0  0  0
  6  8  1  0  0  0  0
  7  9  1  0  0  0  0
  8 10  2  0  0  0  0
  8 11  1  0  0  0  0
  9 12  2  0  0  0  0
  9 13  1  0  0  0  0
 10 14  1  0  0  0  0
 11 15  2  0  0  0  0
 12 16  1  0  0  0  0
 12 17  1  0  0  0  0
 13 18  2  0  0  0  0
 13 19  1  0  0  0  0
 14 20  2  0  0  0  0
 17 21  1  0  0  0  0
 18 22  1  0  0  0  0
 19 23  2  0  0  0  0
 20 24  1  0  0  0  0
 21 25  1  0  0  0  0
 22 26  2  0  0  0  0
 23 27  1  0  0  0  0
 25 28  2  0  0  0  0
 25 29  1  0  0  0  0
 28 30  1  0  0  0  0
 28 31  1  0  0  0  0
 29 32  2  0  0  0  0
 31 33  2  0  0  0  0
  4  6  1  0  0  0  0
 15 20  1  0  0  0  0
 17 18  1  0  0  0  0
 23 26  1  0  0  0  0
 32 33  1  0  0  0  0
M  END
>  <S/N>
517

>  <Compound ID>
C_534

>  <PubChem CID>
155543477

>  <Isomeric SMILES>
CC1=CC=C(C=C1)C2=CSC(=N2)N=NC3=C(N(C4=C3C=C(C=C4)C)CC5=CC=CC=C5F)O

>  <IC50 (�M)>
5.3

>  <pIC50>
5.28

$$$$
C_535
Actelion Java MolfileCreator 1.0

 36 39  0  0  1  0  0  0  0  0999 V2000
    7.0873   -4.9499   -0.0000 F   0  0  0  0  0  0  0  0  0  0  0  0
    6.1737   -5.3566   -0.0000 C   0  0  0  0  0  0  0  0  0  0  0  0
    6.5805   -6.2702   -0.0000 F   0  0  0  0  0  0  0  0  0  0  0  0
    5.2602   -5.7634   -0.0000 F   0  0  0  0  0  0  0  0  0  0  0  0
    5.7670   -4.4431   -0.0000 C   0  0  0  0  0  0  0  0  0  0  0  0
    6.3548   -3.6341   -0.0000 C   0  0  0  0  0  0  0  0  0  0  0  0
    4.7725   -4.3385   -0.0000 C   0  0  0  0  0  0  0  0  0  0  0  0
    5.9480   -2.7205   -0.0000 C   0  0  0  0  0  0  0  0  0  0  0  0
    4.3657   -3.4250   -0.0000 C   0  0  0  0  0  0  0  0  0  0  0  0
    4.9535   -2.6160   -0.0000 C   0  0  0  0  0  0  0  0  0  0  0  0
    4.5468   -1.7024   -0.0000 C   0  0  0  0  0  0  0  0  0  0  0  0
    5.0468   -0.8364   -0.0000 N   0  0  0  0  0  0  0  0  0  0  0  0
    3.5686   -1.4945   -0.0000 C   0  0  0  0  0  0  0  0  0  0  0  0
    4.3776   -0.0933   -0.0000 N   0  0  0  0  0  0  0  0  0  0  0  0
    3.4641   -0.5000   -0.0000 N   0  0  0  0  0  0  0  0  0  0  0  0
    2.5981   -0.0000   -0.0000 C   0  0  0  0  0  0  0  0  0  0  0  0
    1.7321   -0.5000   -0.0000 C   0  0  0  0  0  0  0  0  0  0  0  0
    0.8660   -0.0000   -0.0000 O   0  0  0  0  0  0  0  0  0  0  0  0
    1.7321   -1.5000   -0.0000 C   0  0  0  0  0  0  0  0  0  0  0  0
    0.0000   -0.5000   -0.0000 C   0  0  0  0  0  0  0  0  0  0  0  0
   -0.8660    0.0000   -0.0000 C   0  0  0  0  0  0  0  0  0  0  0  0
   -0.0000   -1.5000   -0.0000 C   0  0  0  0  0  0  0  0  0  0  0  0
   -0.8660    1.0000   -0.0000 O   0  0  0  0  0  0  0  0  0  0  0  0
   -1.7321   -0.5000   -0.0000 C   0  0  0  0  0  0  0  0  0  0  0  0
   -0.8660   -2.0000   -0.0000 C   0  0  0  0  0  0  0  0  0  0  0  0
   -1.7321    1.5000   -0.0000 C   0  0  0  0  0  0  0  0  0  0  0  0
   -1.7321   -1.5000   -0.0000 C   0  0  0  0  0  0  0  0  0  0  0  0
   -2.5981   -2.0000   -0.0000 C   0  0  0  0  0  0  0  0  0  0  0  0
   -3.4641   -1.5000   -0.0000 C   0  0  0  0  0  0  0  0  0  0  0  0
   -2.5981   -3.0000   -0.0000 C   0  0  0  0  0  0  0  0  0  0  0  0
   -4.3301   -2.0000   -0.0000 C   0  0  0  0  0  0  0  0  0  0  0  0
   -3.4641   -3.5000   -0.0000 C   0  0  0  0  0  0  0  0  0  0  0  0
   -4.3301   -3.0000   -0.0000 C   0  0  0  0  0  0  0  0  0  0  0  0
   -5.1962   -3.5000   -0.0000 N   0  0  0  0  0  0  0  0  0  0  0  0
   -6.0622   -3.0000   -0.0000 O   0  0  0  0  0  0  0  0  0  0  0  0
   -5.1962   -4.5000   -0.0000 O   0  0  0  0  0  0  0  0  0  0  0  0
  1  2  1  0  0  0  0
  2  3  1  0  0  0  0
  2  4  1  0  0  0  0
  2  5  1  0  0  0  0
  5  6  2  0  0  0  0
  5  7  1  0  0  0  0
  6  8  1  0  0  0  0
  7  9  2  0  0  0  0
  8 10  2  0  0  0  0
 10 11  1  0  0  0  0
 11 12  1  0  0  0  0
 11 13  2  0  0  0  0
 12 14  2  0  0  0  0
 13 15  1  0  0  0  0
 15 16  1  0  0  0  0
 16 17  1  0  0  0  0
 17 18  1  0  0  0  0
 17 19  1  1  0  0  0
 18 20  1  0  0  0  0
 20 21  2  0  0  0  0
 20 22  1  0  0  0  0
 21 23  1  0  0  0  0
 21 24  1  0  0  0  0
 22 25  2  0  0  0  0
 23 26  1  0  0  0  0
 24 27  2  0  0  0  0
 27 28  1  0  0  0  0
 28 29  2  0  0  0  0
 28 30  1  0  0  0  0
 29 31  1  0  0  0  0
 30 32  2  0  0  0  0
 31 33  2  0  0  0  0
 33 34  1  0  0  0  0
 34 35  2  0  0  0  0
 34 36  1  0  0  0  0
  9 10  1  0  0  0  0
 14 15  1  0  0  0  0
 25 27  1  0  0  0  0
 32 33  1  0  0  0  0
M  CHG  2  34   1  36  -1
M  END
>  <S/N>
518

>  <Compound ID>
C_535

>  <PubChem CID>
155544036

>  <Isomeric SMILES>
C[C@H](CN1C=C(N=N1)C2=CC=C(C=C2)C(F)(F)F)OC3=C(C=C(C=C3)C4=CC=C(C=C4)[N+](=O)[O-])OC

>  <IC50 (�M)>
14

>  <pIC50>
4.85

$$$$
C_536
Actelion Java MolfileCreator 1.0

 25 28  0  0  0  0  0  0  0  0999 V2000
    7.1643    0.0228   -0.0000 Cl  0  0  0  0  0  0  0  0  0  0  0  0
    6.5765   -0.7862   -0.0000 C   0  0  0  0  0  0  0  0  0  0  0  0
    5.5820   -0.6817   -0.0000 C   0  0  0  0  0  0  0  0  0  0  0  0
    6.9833   -1.6997   -0.0000 C   0  0  0  0  0  0  0  0  0  0  0  0
    4.9942   -1.4907   -0.0000 C   0  0  0  0  0  0  0  0  0  0  0  0
    5.1753    0.2319   -0.0000 C   0  0  0  0  0  0  0  0  0  0  0  0
    6.3955   -2.5088   -0.0000 C   0  0  0  0  0  0  0  0  0  0  0  0
    5.4010   -2.4042   -0.0000 C   0  0  0  0  0  0  0  0  0  0  0  0
    4.1808    0.3364   -0.0000 N   0  0  0  0  0  0  0  0  0  0  0  0
    3.6808    1.2024   -0.0000 N   0  0  0  0  0  0  0  0  0  0  0  0
    3.5116   -0.4067   -0.0000 C   0  0  0  0  0  0  0  0  0  0  0  0
    2.7026    0.9945   -0.0000 N   0  0  0  0  0  0  0  0  0  0  0  0
    2.5981   -0.0000   -0.0000 C   0  0  0  0  0  0  0  0  0  0  0  0
    1.7321   -0.5000   -0.0000 C   0  0  0  0  0  0  0  0  0  0  0  0
    0.8660   -0.0000   -0.0000 S   0  0  0  0  0  0  0  0  0  0  0  0
    0.0000   -0.5000   -0.0000 C   0  0  0  0  0  0  0  0  0  0  0  0
   -0.9135   -0.0933   -0.0000 S   0  0  0  0  0  0  0  0  0  0  0  0
   -0.1045   -1.4945   -0.0000 N   0  0  0  0  0  0  0  0  0  0  0  0
   -1.5827   -0.8364   -0.0000 C   0  0  0  0  0  0  0  0  0  0  0  0
   -1.0827   -1.7024   -0.0000 C   0  0  0  0  0  0  0  0  0  0  0  0
   -2.5827   -0.8364   -0.0000 C   0  0  0  0  0  0  0  0  0  0  0  0
   -1.5827   -2.5685   -0.0000 C   0  0  0  0  0  0  0  0  0  0  0  0
   -3.0827   -1.7024   -0.0000 C   0  0  0  0  0  0  0  0  0  0  0  0
   -2.5827   -2.5685   -0.0000 C   0  0  0  0  0  0  0  0  0  0  0  0
   -3.0827   -3.4345   -0.0000 Cl  0  0  0  0  0  0  0  0  0  0  0  0
  1  2  1  0  0  0  0
  2  3  2  0  0  0  0
  2  4  1  0  0  0  0
  3  5  1  0  0  0  0
  3  6  1  0  0  0  0
  4  7  2  0  0  0  0
  5  8  2  0  0  0  0
  6  9  1  0  0  0  0
  9 10  1  0  0  0  0
  9 11  1  0  0  0  0
 10 12  2  0  0  0  0
 11 13  2  0  0  0  0
 13 14  1  0  0  0  0
 14 15  1  0  0  0  0
 15 16  1  0  0  0  0
 16 17  1  0  0  0  0
 16 18  2  0  0  0  0
 17 19  1  0  0  0  0
 18 20  1  0  0  0  0
 19 21  2  0  0  0  0
 20 22  2  0  0  0  0
 21 23  1  0  0  0  0
 22 24  1  0  0  0  0
 24 25  1  0  0  0  0
  7  8  1  0  0  0  0
 12 13  1  0  0  0  0
 19 20  1  0  0  0  0
 23 24  2  0  0  0  0
M  END
>  <S/N>
519

>  <Compound ID>
C_536

>  <PubChem CID>
155544045

>  <Isomeric SMILES>
C1=CC=C(C(=C1)CN2C=C(N=N2)CSC3=NC4=C(S3)C=CC(=C4)Cl)Cl

>  <IC50 (�M)>
20

>  <pIC50>
4.7

$$$$
C_537
Actelion Java MolfileCreator 1.0

 29 32  0  0  0  0  0  0  0  0999 V2000
    1.7321    1.5000   -0.0000 Br  0  0  0  0  0  0  0  0  0  0  0  0
    2.5981    1.0000   -0.0000 C   0  0  0  0  0  0  0  0  0  0  0  0
    2.5981   -0.0000   -0.0000 C   0  0  0  0  0  0  0  0  0  0  0  0
    3.4641    1.5000   -0.0000 C   0  0  0  0  0  0  0  0  0  0  0  0
    3.4641   -0.5000   -0.0000 C   0  0  0  0  0  0  0  0  0  0  0  0
    1.7321   -0.5000   -0.0000 C   0  0  0  0  0  0  0  0  0  0  0  0
    4.3301    1.0000   -0.0000 C   0  0  0  0  0  0  0  0  0  0  0  0
    4.3301   -0.0000   -0.0000 C   0  0  0  0  0  0  0  0  0  0  0  0
    0.8660   -0.0000   -0.0000 S   0  0  0  0  0  0  0  0  0  0  0  0
    0.0000   -0.5000   -0.0000 C   0  0  0  0  0  0  0  0  0  0  0  0
   -0.8660    0.0000   -0.0000 N   0  0  0  0  0  0  0  0  0  0  0  0
   -0.0000   -1.5000   -0.0000 N   0  0  0  0  0  0  0  0  0  0  0  0
   -1.7321   -0.5000   -0.0000 C   0  0  0  0  0  0  0  0  0  0  0  0
   -0.8660   -2.0000   -0.0000 C   0  0  0  0  0  0  0  0  0  0  0  0
   -2.5981    0.0000   -0.0000 C   0  0  0  0  0  0  0  0  0  0  0  0
   -1.7321   -1.5000   -0.0000 C   0  0  0  0  0  0  0  0  0  0  0  0
   -0.8660   -3.0000   -0.0000 C   0  0  0  0  0  0  0  0  0  0  0  0
   -2.5981    1.0000   -0.0000 C   0  0  0  0  0  0  0  0  0  0  0  0
   -3.4641   -0.5000   -0.0000 C   0  0  0  0  0  0  0  0  0  0  0  0
   -1.7321   -3.5000   -0.0000 C   0  0  0  0  0  0  0  0  0  0  0  0
   -0.0000   -3.5000   -0.0000 C   0  0  0  0  0  0  0  0  0  0  0  0
   -3.4641    1.5000   -0.0000 C   0  0  0  0  0  0  0  0  0  0  0  0
   -4.3301    0.0000   -0.0000 C   0  0  0  0  0  0  0  0  0  0  0  0
   -1.7321   -4.5000   -0.0000 C   0  0  0  0  0  0  0  0  0  0  0  0
   -0.0000   -4.5000   -0.0000 C   0  0  0  0  0  0  0  0  0  0  0  0
   -4.3301    1.0000   -0.0000 C   0  0  0  0  0  0  0  0  0  0  0  0
   -0.8660   -5.0000   -0.0000 C   0  0  0  0  0  0  0  0  0  0  0  0
   -5.1962    1.5000   -0.0000 Br  0  0  0  0  0  0  0  0  0  0  0  0
   -0.8660   -6.0000   -0.0000 C   0  0  0  0  0  0  0  0  0  0  0  0
  1  2  1  0  0  0  0
  2  3  2  0  0  0  0
  2  4  1  0  0  0  0
  3  5  1  0  0  0  0
  3  6  1  0  0  0  0
  4  7  2  0  0  0  0
  5  8  2  0  0  0  0
  6  9  1  0  0  0  0
  9 10  1  0  0  0  0
 10 11  2  0  0  0  0
 10 12  1  0  0  0  0
 11 13  1  0  0  0  0
 12 14  2  0  0  0  0
 13 15  1  0  0  0  0
 13 16  2  0  0  0  0
 14 17  1  0  0  0  0
 15 18  2  0  0  0  0
 15 19  1  0  0  0  0
 17 20  2  0  0  0  0
 17 21  1  0  0  0  0
 18 22  1  0  0  0  0
 19 23  2  0  0  0  0
 20 24  1  0  0  0  0
 21 25  2  0  0  0  0
 22 26  2  0  0  0  0
 24 27  2  0  0  0  0
 26 28  1  0  0  0  0
 27 29  1  0  0  0  0
  7  8  1  0  0  0  0
 14 16  1  0  0  0  0
 23 26  1  0  0  0  0
 25 27  1  0  0  0  0
M  END
>  <S/N>
520

>  <Compound ID>
C_537

>  <PubChem CID>
155544268

>  <Isomeric SMILES>
CC1=CC=C(C=C1)C2=CC(=NC(=N2)SCC3=CC=CC=C3Br)C4=CC=C(C=C4)Br

>  <IC50 (�M)>
19

>  <pIC50>
4.72

$$$$
C_538
Actelion Java MolfileCreator 1.0

 56 62  0  0  0  0  0  0  0  0999 V2000
    5.1962    2.2500   -0.0000 Cl  0  0  0  0  0  0  0  0  0  0  0  0
    6.4952    1.5000   -0.0000 C   0  0  0  0  0  0  0  0  0  0  0  0
    6.4952   -0.0000   -0.0000 C   0  0  0  0  0  0  0  0  0  0  0  0
    7.7942    2.2500   -0.0000 C   0  0  0  0  0  0  0  0  0  0  0  0
    5.1962   -0.7500   -0.0000 S   0  0  0  0  0  0  0  0  0  0  0  0
    7.7942   -0.7500   -0.0000 C   0  0  0  0  0  0  0  0  0  0  0  0
    9.0933    1.5000   -0.0000 C   0  0  0  0  0  0  0  0  0  0  0  0
    4.4462   -2.0490   -0.0000 O   0  0  0  0  0  0  0  0  0  0  0  0
    5.9462   -2.0490   -0.0000 O   0  0  0  0  0  0  0  0  0  0  0  0
    3.8971   -0.0000   -0.0000 N   0  0  0  0  0  0  0  0  0  0  0  0
    9.0933    0.0000   -0.0000 C   0  0  0  0  0  0  0  0  0  0  0  0
   10.3923    2.2500   -0.0000 Cl  0  0  0  0  0  0  0  0  0  0  0  0
    2.5981   -0.7500   -0.0000 N   0  0  0  0  0  0  0  0  0  0  0  0
    1.2990   -0.0000   -0.0000 C   0  0  0  0  0  0  0  0  0  0  0  0
    1.2990    1.5000   -0.0000 O   0  0  0  0  0  0  0  0  0  0  0  0
    0.0000   -0.7500   -0.0000 C   0  0  0  0  0  0  0  0  0  0  0  0
   -0.0000   -2.2500   -0.0000 C   0  0  0  0  0  0  0  0  0  0  0  0
   -1.2990    0.0000   -0.0000 C   0  0  0  0  0  0  0  0  0  0  0  0
   -1.2990   -3.0000   -0.0000 C   0  0  0  0  0  0  0  0  0  0  0  0
   -2.5981   -0.7500   -0.0000 C   0  0  0  0  0  0  0  0  0  0  0  0
   -2.5981   -2.2500   -0.0000 C   0  0  0  0  0  0  0  0  0  0  0  0
   -1.6109   -4.4672   -0.0000 C   0  0  0  0  0  0  0  0  0  0  0  0
   -3.7128   -3.2537   -0.0000 N   0  0  0  0  0  0  0  0  0  0  0  0
   -3.1027   -4.6240   -0.0000 C   0  0  0  0  0  0  0  0  0  0  0  0
   -0.6072   -5.5819   -0.0000 C   0  0  0  0  0  0  0  0  0  0  0  0
   -1.0707   -7.0085   -0.0000 C   0  0  0  0  0  0  0  0  0  0  0  0
    0.8600   -5.2701   -0.0000 C   0  0  0  0  0  0  0  0  0  0  0  0
   -2.5380   -7.3204   -0.0000 C   0  0  0  0  0  0  0  0  0  0  0  0
   -0.0670   -8.1233   -0.0000 C   0  0  0  0  0  0  0  0  0  0  0  0
    1.9747   -6.2738   -0.0000 C   0  0  0  0  0  0  0  0  0  0  0  0
    1.4701   -3.8998   -0.0000 C   0  0  0  0  0  0  0  0  0  0  0  0
   -3.0015   -8.7470   -0.0000 C   0  0  0  0  0  0  0  0  0  0  0  0
   -0.5306   -9.5498   -0.0000 C   0  0  0  0  0  0  0  0  0  0  0  0
    3.2738   -5.5238   -0.0000 C   0  0  0  0  0  0  0  0  0  0  0  0
    1.9747   -7.7738   -0.0000 C   0  0  0  0  0  0  0  0  0  0  0  0
    2.9619   -4.0566   -0.0000 N   0  0  0  0  0  0  0  0  0  0  0  0
   -1.9978   -9.8617   -0.0000 C   0  0  0  0  0  0  0  0  0  0  0  0
    4.5728   -6.2738   -0.0000 C   0  0  0  0  0  0  0  0  0  0  0  0
    3.2738   -8.5238   -0.0000 C   0  0  0  0  0  0  0  0  0  0  0  0
   -2.4613  -11.2883   -0.0000 C   0  0  0  0  0  0  0  0  0  0  0  0
    4.5728   -7.7738   -0.0000 C   0  0  0  0  0  0  0  0  0  0  0  0
    3.2738  -10.0238   -0.0000 C   0  0  0  0  0  0  0  0  0  0  0  0
    4.5728  -10.7738   -0.0000 O   0  0  0  0  0  0  0  0  0  0  0  0
    1.9747  -10.7738   -0.0000 N   0  0  0  0  0  0  0  0  0  0  0  0
    1.9747  -12.2738   -0.0000 N   0  0  0  0  0  0  0  0  0  0  0  0
    0.6757  -13.0238   -0.0000 S   0  0  0  0  0  0  0  0  0  0  0  0
   -0.0743  -11.7248   -0.0000 O   0  0  0  0  0  0  0  0  0  0  0  0
   -0.8243  -13.0238   -0.0000 O   0  0  0  0  0  0  0  0  0  0  0  0
    0.6757  -14.5238   -0.0000 C   0  0  0  0  0  0  0  0  0  0  0  0
   -0.6233  -15.2738   -0.0000 C   0  0  0  0  0  0  0  0  0  0  0  0
    1.9747  -15.2738   -0.0000 C   0  0  0  0  0  0  0  0  0  0  0  0
   -1.9224  -14.5238   -0.0000 Cl  0  0  0  0  0  0  0  0  0  0  0  0
   -0.6233  -16.7738   -0.0000 C   0  0  0  0  0  0  0  0  0  0  0  0
    1.9747  -16.7738   -0.0000 C   0  0  0  0  0  0  0  0  0  0  0  0
    0.6757  -17.5238   -0.0000 C   0  0  0  0  0  0  0  0  0  0  0  0
    0.6757  -19.0238   -0.0000 Cl  0  0  0  0  0  0  0  0  0  0  0  0
  1  2  1  0  0  0  0
  2  3  2  0  0  0  0
  2  4  1  0  0  0  0
  3  5  1  0  0  0  0
  3  6  1  0  0  0  0
  4  7  2  0  0  0  0
  5  8  2  0  0  0  0
  5  9  2  0  0  0  0
  5 10  1  0  0  0  0
  6 11  2  0  0  0  0
  7 12  1  0  0  0  0
 10 13  1  0  0  0  0
 13 14  1  0  0  0  0
 14 15  2  0  0  0  0
 14 16  1  0  0  0  0
 16 17  2  0  0  0  0
 16 18  1  0  0  0  0
 17 19  1  0  0  0  0
 18 20  2  0  0  0  0
 19 21  2  0  0  0  0
 19 22  1  0  0  0  0
 21 23  1  0  0  0  0
 22 24  2  0  0  0  0
 22 25  1  0  0  0  0
 25 26  1  0  0  0  0
 25 27  1  0  0  0  0
 26 28  2  0  0  0  0
 26 29  1  0  0  0  0
 27 30  1  0  0  0  0
 27 31  2  0  0  0  0
 28 32  1  0  0  0  0
 29 33  2  0  0  0  0
 30 34  2  0  0  0  0
 30 35  1  0  0  0  0
 31 36  1  0  0  0  0
 32 37  2  0  0  0  0
 34 38  1  0  0  0  0
 35 39  2  0  0  0  0
 37 40  1  0  0  0  0
 38 41  2  0  0  0  0
 39 42  1  0  0  0  0
 42 43  2  0  0  0  0
 42 44  1  0  0  0  0
 44 45  1  0  0  0  0
 45 46  1  0  0  0  0
 46 47  2  0  0  0  0
 46 48  2  0  0  0  0
 46 49  1  0  0  0  0
 49 50  2  0  0  0  0
 49 51  1  0  0  0  0
 50 52  1  0  0  0  0
 50 53  1  0  0  0  0
 51 54  2  0  0  0  0
 53 55  2  0  0  0  0
 55 56  1  0  0  0  0
  7 11  1  0  0  0  0
 20 21  1  0  0  0  0
 23 24  1  0  0  0  0
 33 37  1  0  0  0  0
 34 36  1  0  0  0  0
 39 41  1  0  0  0  0
 54 55  1  0  0  0  0
M  END
>  <S/N>
521

>  <Compound ID>
C_538

>  <PubChem CID>
155544539

>  <Isomeric SMILES>
CC1=CC=C(C=C1)C(C2=CNC3=C2C=C(C=C3)C(=O)NNS(=O)(=O)C4=C(C=C(C=C4)Cl)Cl)C5=CNC6=C5C=C(C=C6)C(=O)NNS(=O)(=O)C7=C(C=C(C=C7)Cl)Cl

>  <IC50 (�M)>
0.1

>  <pIC50>
7

$$$$
C_539
Actelion Java MolfileCreator 1.0

 27 30  0  0  1  0  0  0  0  0999 V2000
    6.5007    1.4177   -0.0000 Cl  0  0  0  0  0  0  0  0  0  0  0  0
    6.5132   -0.0000   -0.0000 C   0  0  0  0  0  0  0  0  0  0  0  0
    5.2106   -0.7521   -0.0000 C   0  0  0  0  0  0  0  0  0  0  0  0
    7.8158   -0.7521   -0.0000 C   0  0  0  0  0  0  0  0  0  0  0  0
    5.2106   -2.2562   -0.0000 C   0  0  0  0  0  0  0  0  0  0  0  0
    3.9079   -0.0000   -0.0000 C   0  0  0  0  0  0  0  0  0  0  0  0
    7.8158   -2.2562   -0.0000 C   0  0  0  0  0  0  0  0  0  0  0  0
    3.9079   -3.0083   -0.0000 Cl  0  0  0  0  0  0  0  0  0  0  0  0
    6.5132   -3.0083   -0.0000 C   0  0  0  0  0  0  0  0  0  0  0  0
    3.9079    1.5042   -0.0000 C   0  0  0  0  0  0  0  0  0  0  0  0
    2.6053   -0.7521   -0.0000 C   0  0  0  0  0  0  0  0  0  0  0  0
    5.1248    2.3883   -0.0000 C   0  0  0  0  0  0  0  0  0  0  0  0
    2.6910    2.3883   -0.0000 C   0  0  0  0  0  0  0  0  0  0  0  0
    1.3026   -0.0000   -0.0000 C   0  0  0  0  0  0  0  0  0  0  0  0
    4.6600    3.8188   -0.0000 C   0  0  0  0  0  0  0  0  0  0  0  0
    6.6024    2.1188   -0.0000 C   0  0  0  0  0  0  0  0  0  0  0  0
    3.1558    3.8188   -0.0000 N   0  0  0  0  0  0  0  0  0  0  0  0
    1.3026    1.5042   -0.0000 O   0  0  0  0  0  0  0  0  0  0  0  0
    0.0000   -0.7521   -0.0000 C   0  0  0  0  0  0  0  0  0  0  0  0
    5.6665    4.9366   -0.0000 C   0  0  0  0  0  0  0  0  0  0  0  0
    7.6026    3.1934   -0.0000 C   0  0  0  0  0  0  0  0  0  0  0  0
   -1.3026    0.0000   -0.0000 C   0  0  0  0  0  0  0  0  0  0  0  0
   -0.0000   -2.2562   -0.0000 C   0  0  0  0  0  0  0  0  0  0  0  0
    7.1378    4.6239   -0.0000 C   0  0  0  0  0  0  0  0  0  0  0  0
   -2.6053   -0.7521   -0.0000 C   0  0  0  0  0  0  0  0  0  0  0  0
   -1.3026   -3.0083   -0.0000 C   0  0  0  0  0  0  0  0  0  0  0  0
   -2.6053   -2.2562   -0.0000 C   0  0  0  0  0  0  0  0  0  0  0  0
  1  2  1  0  0  0  0
  2  3  2  0  0  0  0
  2  4  1  0  0  0  0
  3  5  1  0  0  0  0
  3  6  1  0  0  0  0
  4  7  2  0  0  0  0
  5  8  1  0  0  0  0
  5  9  2  0  0  0  0
  6 10  1  0  0  0  0
  6 11  1  6  0  0  0
 10 12  1  0  0  0  0
 10 13  2  0  0  0  0
 11 14  1  0  0  0  0
 12 15  2  0  0  0  0
 12 16  1  0  0  0  0
 13 17  1  0  0  0  0
 14 18  2  0  0  0  0
 14 19  1  0  0  0  0
 15 20  1  0  0  0  0
 16 21  2  0  0  0  0
 19 22  2  0  0  0  0
 19 23  1  0  0  0  0
 20 24  2  0  0  0  0
 22 25  1  0  0  0  0
 23 26  2  0  0  0  0
 25 27  2  0  0  0  0
  7  9  1  0  0  0  0
 15 17  1  0  0  0  0
 21 24  1  0  0  0  0
 26 27  1  0  0  0  0
M  END
>  <S/N>
522

>  <Compound ID>
C_539

>  <PubChem CID>
155544641

>  <Isomeric SMILES>
C1=CC=C(C=C1)C(=O)C[C@H](C2=CNC3=CC=CC=C32)C4=C(C=CC=C4Cl)Cl

>  <IC50 (�M)>
4.3

>  <pIC50>
5.37

$$$$
C_540
Actelion Java MolfileCreator 1.0

 58 64  0  0  0  0  0  0  0  0999 V2000
   10.3923    2.2500   -0.0000 Cl  0  0  0  0  0  0  0  0  0  0  0  0
    9.0933    1.5000   -0.0000 C   0  0  0  0  0  0  0  0  0  0  0  0
    7.7942    2.2500   -0.0000 C   0  0  0  0  0  0  0  0  0  0  0  0
    9.0933   -0.0000   -0.0000 C   0  0  0  0  0  0  0  0  0  0  0  0
    7.7942    3.7500   -0.0000 Cl  0  0  0  0  0  0  0  0  0  0  0  0
    6.4952    1.5000   -0.0000 C   0  0  0  0  0  0  0  0  0  0  0  0
    7.7942   -0.7500   -0.0000 C   0  0  0  0  0  0  0  0  0  0  0  0
    6.4952   -0.0000   -0.0000 C   0  0  0  0  0  0  0  0  0  0  0  0
    7.7942   -2.2500   -0.0000 Cl  0  0  0  0  0  0  0  0  0  0  0  0
    5.1962   -0.7500   -0.0000 S   0  0  0  0  0  0  0  0  0  0  0  0
    4.4462   -2.0490   -0.0000 O   0  0  0  0  0  0  0  0  0  0  0  0
    5.9462   -2.0490   -0.0000 O   0  0  0  0  0  0  0  0  0  0  0  0
    3.8971   -0.0000   -0.0000 N   0  0  0  0  0  0  0  0  0  0  0  0
    2.5981   -0.7500   -0.0000 N   0  0  0  0  0  0  0  0  0  0  0  0
    1.2990   -0.0000   -0.0000 C   0  0  0  0  0  0  0  0  0  0  0  0
    1.2990    1.5000   -0.0000 O   0  0  0  0  0  0  0  0  0  0  0  0
    0.0000   -0.7500   -0.0000 C   0  0  0  0  0  0  0  0  0  0  0  0
   -0.0000   -2.2500   -0.0000 C   0  0  0  0  0  0  0  0  0  0  0  0
   -1.2990    0.0000   -0.0000 C   0  0  0  0  0  0  0  0  0  0  0  0
   -1.2990   -3.0000   -0.0000 C   0  0  0  0  0  0  0  0  0  0  0  0
   -2.5981   -0.7500   -0.0000 C   0  0  0  0  0  0  0  0  0  0  0  0
   -2.5981   -2.2500   -0.0000 C   0  0  0  0  0  0  0  0  0  0  0  0
   -1.6109   -4.4672   -0.0000 C   0  0  0  0  0  0  0  0  0  0  0  0
   -3.7128   -3.2537   -0.0000 N   0  0  0  0  0  0  0  0  0  0  0  0
   -3.1027   -4.6240   -0.0000 C   0  0  0  0  0  0  0  0  0  0  0  0
   -0.6072   -5.5819   -0.0000 C   0  0  0  0  0  0  0  0  0  0  0  0
   -1.0707   -7.0085   -0.0000 C   0  0  0  0  0  0  0  0  0  0  0  0
    0.8600   -5.2701   -0.0000 C   0  0  0  0  0  0  0  0  0  0  0  0
   -2.5380   -7.3204   -0.0000 C   0  0  0  0  0  0  0  0  0  0  0  0
   -0.0670   -8.1233   -0.0000 C   0  0  0  0  0  0  0  0  0  0  0  0
    1.9747   -6.2738   -0.0000 C   0  0  0  0  0  0  0  0  0  0  0  0
    1.4701   -3.8998   -0.0000 C   0  0  0  0  0  0  0  0  0  0  0  0
   -3.0015   -8.7470   -0.0000 C   0  0  0  0  0  0  0  0  0  0  0  0
   -0.5306   -9.5498   -0.0000 C   0  0  0  0  0  0  0  0  0  0  0  0
    3.2738   -5.5238   -0.0000 C   0  0  0  0  0  0  0  0  0  0  0  0
    1.9747   -7.7738   -0.0000 C   0  0  0  0  0  0  0  0  0  0  0  0
    2.9619   -4.0566   -0.0000 N   0  0  0  0  0  0  0  0  0  0  0  0
   -1.9978   -9.8617   -0.0000 C   0  0  0  0  0  0  0  0  0  0  0  0
    4.5728   -6.2738   -0.0000 C   0  0  0  0  0  0  0  0  0  0  0  0
    3.2738   -8.5238   -0.0000 C   0  0  0  0  0  0  0  0  0  0  0  0
   -2.4613  -11.2883   -0.0000 C   0  0  0  0  0  0  0  0  0  0  0  0
    4.5728   -7.7738   -0.0000 C   0  0  0  0  0  0  0  0  0  0  0  0
    3.2738  -10.0238   -0.0000 C   0  0  0  0  0  0  0  0  0  0  0  0
    4.5728  -10.7738   -0.0000 O   0  0  0  0  0  0  0  0  0  0  0  0
    1.9747  -10.7738   -0.0000 N   0  0  0  0  0  0  0  0  0  0  0  0
    1.9747  -12.2738   -0.0000 N   0  0  0  0  0  0  0  0  0  0  0  0
    0.6757  -13.0238   -0.0000 S   0  0  0  0  0  0  0  0  0  0  0  0
   -0.0743  -11.7248   -0.0000 O   0  0  0  0  0  0  0  0  0  0  0  0
   -0.8243  -13.0238   -0.0000 O   0  0  0  0  0  0  0  0  0  0  0  0
    0.6757  -14.5238   -0.0000 C   0  0  0  0  0  0  0  0  0  0  0  0
   -0.6233  -15.2738   -0.0000 C   0  0  0  0  0  0  0  0  0  0  0  0
    1.9747  -15.2738   -0.0000 C   0  0  0  0  0  0  0  0  0  0  0  0
   -1.9224  -14.5238   -0.0000 Cl  0  0  0  0  0  0  0  0  0  0  0  0
   -0.6233  -16.7738   -0.0000 C   0  0  0  0  0  0  0  0  0  0  0  0
    1.9747  -16.7738   -0.0000 C   0  0  0  0  0  0  0  0  0  0  0  0
    0.6757  -17.5238   -0.0000 C   0  0  0  0  0  0  0  0  0  0  0  0
    3.2738  -17.5238   -0.0000 Cl  0  0  0  0  0  0  0  0  0  0  0  0
    0.6757  -19.0238   -0.0000 Cl  0  0  0  0  0  0  0  0  0  0  0  0
  1  2  1  0  0  0  0
  2  3  2  0  0  0  0
  2  4  1  0  0  0  0
  3  5  1  0  0  0  0
  3  6  1  0  0  0  0
  4  7  2  0  0  0  0
  6  8  2  0  0  0  0
  7  9  1  0  0  0  0
  8 10  1  0  0  0  0
 10 11  2  0  0  0  0
 10 12  2  0  0  0  0
 10 13  1  0  0  0  0
 13 14  1  0  0  0  0
 14 15  1  0  0  0  0
 15 16  2  0  0  0  0
 15 17  1  0  0  0  0
 17 18  2  0  0  0  0
 17 19  1  0  0  0  0
 18 20  1  0  0  0  0
 19 21  2  0  0  0  0
 20 22  2  0  0  0  0
 20 23  1  0  0  0  0
 22 24  1  0  0  0  0
 23 25  2  0  0  0  0
 23 26  1  0  0  0  0
 26 27  1  0  0  0  0
 26 28  1  0  0  0  0
 27 29  2  0  0  0  0
 27 30  1  0  0  0  0
 28 31  1  0  0  0  0
 28 32  2  0  0  0  0
 29 33  1  0  0  0  0
 30 34  2  0  0  0  0
 31 35  2  0  0  0  0
 31 36  1  0  0  0  0
 32 37  1  0  0  0  0
 33 38  2  0  0  0  0
 35 39  1  0  0  0  0
 36 40  2  0  0  0  0
 38 41  1  0  0  0  0
 39 42  2  0  0  0  0
 40 43  1  0  0  0  0
 43 44  2  0  0  0  0
 43 45  1  0  0  0  0
 45 46  1  0  0  0  0
 46 47  1  0  0  0  0
 47 48  2  0  0  0  0
 47 49  2  0  0  0  0
 47 50  1  0  0  0  0
 50 51  2  0  0  0  0
 50 52  1  0  0  0  0
 51 53  1  0  0  0  0
 51 54  1  0  0  0  0
 52 55  2  0  0  0  0
 54 56  2  0  0  0  0
 55 57  1  0  0  0  0
 56 58  1  0  0  0  0
  7  8  1  0  0  0  0
 21 22  1  0  0  0  0
 24 25  1  0  0  0  0
 34 38  1  0  0  0  0
 35 37  1  0  0  0  0
 40 42  1  0  0  0  0
 55 56  1  0  0  0  0
M  END
>  <S/N>
523

>  <Compound ID>
C_540

>  <PubChem CID>
155544678

>  <Isomeric SMILES>
CC1=CC=C(C=C1)C(C2=CNC3=C2C=C(C=C3)C(=O)NNS(=O)(=O)C4=CC(=C(C=C4Cl)Cl)Cl)C5=CNC6=C5C=C(C=C6)C(=O)NNS(=O)(=O)C7=CC(=C(C=C7Cl)Cl)Cl

>  <IC50 (�M)>
0.3

>  <pIC50>
6.52

$$$$
C_541
Actelion Java MolfileCreator 1.0

 39 43  0  0  0  0  0  0  0  0999 V2000
    6.9872   -7.1837   -0.0000 O   0  0  0  0  0  0  0  0  0  0  0  0
    5.9927   -7.0792   -0.0000 C   0  0  0  0  0  0  0  0  0  0  0  0
    5.5859   -6.1656   -0.0000 C   0  0  0  0  0  0  0  0  0  0  0  0
    5.4049   -7.8882   -0.0000 C   0  0  0  0  0  0  0  0  0  0  0  0
    4.5914   -6.0611   -0.0000 C   0  0  0  0  0  0  0  0  0  0  0  0
    6.1737   -5.3566   -0.0000 C   0  0  0  0  0  0  0  0  0  0  0  0
    4.4104   -7.7837   -0.0000 C   0  0  0  0  0  0  0  0  0  0  0  0
    5.8116   -8.8017   -0.0000 C   0  0  0  0  0  0  0  0  0  0  0  0
    4.0036   -6.8701   -0.0000 O   0  0  0  0  0  0  0  0  0  0  0  0
    4.1847   -5.1476   -0.0000 C   0  0  0  0  0  0  0  0  0  0  0  0
    7.1682   -5.4611   -0.0000 O   0  0  0  0  0  0  0  0  0  0  0  0
    5.7670   -4.4431   -0.0000 C   0  0  0  0  0  0  0  0  0  0  0  0
    3.8226   -8.5927   -0.0000 C   0  0  0  0  0  0  0  0  0  0  0  0
    5.2238   -9.6108   -0.0000 C   0  0  0  0  0  0  0  0  0  0  0  0
    4.7725   -4.3385   -0.0000 C   0  0  0  0  0  0  0  0  0  0  0  0
    4.2293   -9.5062   -0.0000 C   0  0  0  0  0  0  0  0  0  0  0  0
    4.3657   -3.4250   -0.0000 O   0  0  0  0  0  0  0  0  0  0  0  0
    3.6415  -10.3152   -0.0000 O   0  0  0  0  0  0  0  0  0  0  0  0
    4.9535   -2.6160   -0.0000 C   0  0  0  0  0  0  0  0  0  0  0  0
    4.0483  -11.2288   -0.0000 C   0  0  0  0  0  0  0  0  0  0  0  0
    4.5468   -1.7024   -0.0000 C   0  0  0  0  0  0  0  0  0  0  0  0
    5.0468   -0.8364   -0.0000 N   0  0  0  0  0  0  0  0  0  0  0  0
    3.5686   -1.4945   -0.0000 C   0  0  0  0  0  0  0  0  0  0  0  0
    4.3776   -0.0933   -0.0000 N   0  0  0  0  0  0  0  0  0  0  0  0
    3.4641   -0.5000   -0.0000 N   0  0  0  0  0  0  0  0  0  0  0  0
    2.5981   -0.0000   -0.0000 C   0  0  0  0  0  0  0  0  0  0  0  0
    1.7321   -0.5000   -0.0000 C   0  0  0  0  0  0  0  0  0  0  0  0
    1.7321   -1.5000   -0.0000 O   0  0  0  0  0  0  0  0  0  0  0  0
    0.8660   -0.0000   -0.0000 N   0  0  0  0  0  0  0  0  0  0  0  0
    0.0000   -0.5000   -0.0000 C   0  0  0  0  0  0  0  0  0  0  0  0
   -0.8660    0.0000   -0.0000 C   0  0  0  0  0  0  0  0  0  0  0  0
   -0.0000   -1.5000   -0.0000 C   0  0  0  0  0  0  0  0  0  0  0  0
   -0.8660    1.0000   -0.0000 O   0  0  0  0  0  0  0  0  0  0  0  0
   -1.7321   -0.5000   -0.0000 C   0  0  0  0  0  0  0  0  0  0  0  0
   -0.8660   -2.0000   -0.0000 C   0  0  0  0  0  0  0  0  0  0  0  0
   -1.7321    1.5000   -0.0000 C   0  0  0  0  0  0  0  0  0  0  0  0
   -1.7321   -1.5000   -0.0000 C   0  0  0  0  0  0  0  0  0  0  0  0
   -2.5981   -2.0000   -0.0000 O   0  0  0  0  0  0  0  0  0  0  0  0
   -2.5981   -3.0000   -0.0000 C   0  0  0  0  0  0  0  0  0  0  0  0
  1  2  2  0  0  0  0
  2  3  1  0  0  0  0
  2  4  1  0  0  0  0
  3  5  2  0  0  0  0
  3  6  1  0  0  0  0
  4  7  2  0  0  0  0
  4  8  1  0  0  0  0
  5  9  1  0  0  0  0
  5 10  1  0  0  0  0
  6 11  1  0  0  0  0
  6 12  2  0  0  0  0
  7 13  1  0  0  0  0
  8 14  2  0  0  0  0
 10 15  2  0  0  0  0
 13 16  2  0  0  0  0
 15 17  1  0  0  0  0
 16 18  1  0  0  0  0
 17 19  1  0  0  0  0
 18 20  1  0  0  0  0
 19 21  1  0  0  0  0
 21 22  1  0  0  0  0
 21 23  2  0  0  0  0
 22 24  2  0  0  0  0
 23 25  1  0  0  0  0
 25 26  1  0  0  0  0
 26 27  1  0  0  0  0
 27 28  2  0  0  0  0
 27 29  1  0  0  0  0
 29 30  1  0  0  0  0
 30 31  2  0  0  0  0
 30 32  1  0  0  0  0
 31 33  1  0  0  0  0
 31 34  1  0  0  0  0
 32 35  2  0  0  0  0
 33 36  1  0  0  0  0
 34 37  2  0  0  0  0
 37 38  1  0  0  0  0
 38 39  1  0  0  0  0
  7  9  1  0  0  0  0
 12 15  1  0  0  0  0
 14 16  1  0  0  0  0
 24 25  1  0  0  0  0
 35 37  1  0  0  0  0
M  END
>  <S/N>
524

>  <Compound ID>
C_541

>  <PubChem CID>
155545216

>  <Isomeric SMILES>
COC1=CC2=C(C=C1)C(=O)C3=C(C=C(C=C3O2)OCC4=CN(N=N4)CC(=O)NC5=C(C=C(C=C5)OC)OC)O

>  <IC50 (�M)>
2.06

>  <pIC50>
5.69

$$$$
C_542
Actelion Java MolfileCreator 1.0

 37 41  0  0  0  0  0  0  0  0999 V2000
    7.0397    4.8566   -0.0000 Cl  0  0  0  0  0  0  0  0  0  0  0  0
    6.6330    3.9431   -0.0000 C   0  0  0  0  0  0  0  0  0  0  0  0
    5.6385    3.8385   -0.0000 C   0  0  0  0  0  0  0  0  0  0  0  0
    7.2208    3.1341   -0.0000 C   0  0  0  0  0  0  0  0  0  0  0  0
    5.2318    2.9250   -0.0000 C   0  0  0  0  0  0  0  0  0  0  0  0
    6.8141    2.2205   -0.0000 C   0  0  0  0  0  0  0  0  0  0  0  0
    5.8195    2.1160   -0.0000 C   0  0  0  0  0  0  0  0  0  0  0  0
    5.4128    1.2024   -0.0000 C   0  0  0  0  0  0  0  0  0  0  0  0
    4.4347    0.9945   -0.0000 N   0  0  0  0  0  0  0  0  0  0  0  0
    5.9128    0.3364   -0.0000 C   0  0  0  0  0  0  0  0  0  0  0  0
    4.3301   -0.0000   -0.0000 C   0  0  0  0  0  0  0  0  0  0  0  0
    5.2437   -0.4067   -0.0000 S   0  0  0  0  0  0  0  0  0  0  0  0
    3.4641   -0.5000   -0.0000 N   0  0  0  0  0  0  0  0  0  0  0  0
    2.5981   -0.0000   -0.0000 C   0  0  0  0  0  0  0  0  0  0  0  0
    2.5981    1.0000   -0.0000 O   0  0  0  0  0  0  0  0  0  0  0  0
    1.7321   -0.5000   -0.0000 C   0  0  0  0  0  0  0  0  0  0  0  0
    0.8660   -0.0000   -0.0000 S   0  0  0  0  0  0  0  0  0  0  0  0
    0.0000   -0.5000   -0.0000 C   0  0  0  0  0  0  0  0  0  0  0  0
   -0.8660    0.0000   -0.0000 N   0  0  0  0  0  0  0  0  0  0  0  0
   -0.0000   -1.5000   -0.0000 N   0  0  0  0  0  0  0  0  0  0  0  0
   -1.7321   -0.5000   -0.0000 N   0  0  0  0  0  0  0  0  0  0  0  0
   -0.8660   -2.0000   -0.0000 C   0  0  0  0  0  0  0  0  0  0  0  0
   -1.7321   -1.5000   -0.0000 C   0  0  0  0  0  0  0  0  0  0  0  0
   -0.8660   -3.0000   -0.0000 C   0  0  0  0  0  0  0  0  0  0  0  0
   -2.5981   -2.0000   -0.0000 C   0  0  0  0  0  0  0  0  0  0  0  0
   -1.7321   -3.5000   -0.0000 C   0  0  0  0  0  0  0  0  0  0  0  0
   -0.0000   -3.5000   -0.0000 C   0  0  0  0  0  0  0  0  0  0  0  0
   -3.4641   -1.5000   -0.0000 C   0  0  0  0  0  0  0  0  0  0  0  0
   -2.5981   -3.0000   -0.0000 C   0  0  0  0  0  0  0  0  0  0  0  0
   -1.7321   -4.5000   -0.0000 C   0  0  0  0  0  0  0  0  0  0  0  0
   -0.0000   -4.5000   -0.0000 C   0  0  0  0  0  0  0  0  0  0  0  0
   -4.3301   -2.0000   -0.0000 C   0  0  0  0  0  0  0  0  0  0  0  0
   -3.4641   -3.5000   -0.0000 C   0  0  0  0  0  0  0  0  0  0  0  0
   -0.8660   -5.0000   -0.0000 C   0  0  0  0  0  0  0  0  0  0  0  0
   -4.3301   -3.0000   -0.0000 C   0  0  0  0  0  0  0  0  0  0  0  0
   -0.8660   -6.0000   -0.0000 F   0  0  0  0  0  0  0  0  0  0  0  0
   -5.1962   -3.5000   -0.0000 F   0  0  0  0  0  0  0  0  0  0  0  0
  1  2  1  0  0  0  0
  2  3  2  0  0  0  0
  2  4  1  0  0  0  0
  3  5  1  0  0  0  0
  4  6  2  0  0  0  0
  5  7  2  0  0  0  0
  7  8  1  0  0  0  0
  8  9  1  0  0  0  0
  8 10  2  0  0  0  0
  9 11  2  0  0  0  0
 10 12  1  0  0  0  0
 11 13  1  0  0  0  0
 13 14  1  0  0  0  0
 14 15  2  0  0  0  0
 14 16  1  0  0  0  0
 16 17  1  0  0  0  0
 17 18  1  0  0  0  0
 18 19  2  0  0  0  0
 18 20  1  0  0  0  0
 19 21  1  0  0  0  0
 20 22  2  0  0  0  0
 21 23  2  0  0  0  0
 22 24  1  0  0  0  0
 23 25  1  0  0  0  0
 24 26  2  0  0  0  0
 24 27  1  0  0  0  0
 25 28  2  0  0  0  0
 25 29  1  0  0  0  0
 26 30  1  0  0  0  0
 27 31  2  0  0  0  0
 28 32  1  0  0  0  0
 29 33  2  0  0  0  0
 30 34  2  0  0  0  0
 32 35  2  0  0  0  0
 34 36  1  0  0  0  0
 35 37  1  0  0  0  0
  6  7  1  0  0  0  0
 11 12  1  0  0  0  0
 22 23  1  0  0  0  0
 31 34  1  0  0  0  0
 33 35  1  0  0  0  0
M  END
>  <S/N>
525

>  <Compound ID>
C_542

>  <PubChem CID>
155545371

>  <Isomeric SMILES>
C1=CC(=CC=C1C2=C(N=NC(=N2)SCC(=O)NC3=NC(=CS3)C4=CC=C(C=C4)Cl)C5=CC=C(C=C5)F)F

>  <IC50 (�M)>
2.8

>  <pIC50>
5.55

$$$$
C_543
Actelion Java MolfileCreator 1.0

 42 46  0  0  0  0  0  0  0  0999 V2000
    6.9872   -7.1837   -0.0000 O   0  0  0  0  0  0  0  0  0  0  0  0
    5.9927   -7.0792   -0.0000 C   0  0  0  0  0  0  0  0  0  0  0  0
    5.5859   -6.1656   -0.0000 C   0  0  0  0  0  0  0  0  0  0  0  0
    5.4049   -7.8882   -0.0000 C   0  0  0  0  0  0  0  0  0  0  0  0
    4.5914   -6.0611   -0.0000 C   0  0  0  0  0  0  0  0  0  0  0  0
    6.1737   -5.3566   -0.0000 C   0  0  0  0  0  0  0  0  0  0  0  0
    4.4104   -7.7837   -0.0000 C   0  0  0  0  0  0  0  0  0  0  0  0
    5.8116   -8.8017   -0.0000 C   0  0  0  0  0  0  0  0  0  0  0  0
    4.0036   -6.8701   -0.0000 O   0  0  0  0  0  0  0  0  0  0  0  0
    4.1847   -5.1476   -0.0000 C   0  0  0  0  0  0  0  0  0  0  0  0
    7.1682   -5.4611   -0.0000 O   0  0  0  0  0  0  0  0  0  0  0  0
    5.7670   -4.4431   -0.0000 C   0  0  0  0  0  0  0  0  0  0  0  0
    3.8226   -8.5927   -0.0000 C   0  0  0  0  0  0  0  0  0  0  0  0
    5.2238   -9.6108   -0.0000 C   0  0  0  0  0  0  0  0  0  0  0  0
    4.7725   -4.3385   -0.0000 C   0  0  0  0  0  0  0  0  0  0  0  0
    7.7560   -4.6521   -0.0000 C   0  0  0  0  0  0  0  0  0  0  0  0
    4.2293   -9.5062   -0.0000 C   0  0  0  0  0  0  0  0  0  0  0  0
    5.6306  -10.5243   -0.0000 O   0  0  0  0  0  0  0  0  0  0  0  0
    4.3657   -3.4250   -0.0000 O   0  0  0  0  0  0  0  0  0  0  0  0
    7.3493   -3.7386   -0.0000 O   0  0  0  0  0  0  0  0  0  0  0  0
    8.7506   -4.7567   -0.0000 C   0  0  0  0  0  0  0  0  0  0  0  0
    6.6251  -10.6288   -0.0000 C   0  0  0  0  0  0  0  0  0  0  0  0
    4.9535   -2.6160   -0.0000 C   0  0  0  0  0  0  0  0  0  0  0  0
    4.5468   -1.7024   -0.0000 C   0  0  0  0  0  0  0  0  0  0  0  0
    5.0468   -0.8364   -0.0000 N   0  0  0  0  0  0  0  0  0  0  0  0
    3.5686   -1.4945   -0.0000 C   0  0  0  0  0  0  0  0  0  0  0  0
    4.3776   -0.0933   -0.0000 N   0  0  0  0  0  0  0  0  0  0  0  0
    3.4641   -0.5000   -0.0000 N   0  0  0  0  0  0  0  0  0  0  0  0
    2.5981   -0.0000   -0.0000 C   0  0  0  0  0  0  0  0  0  0  0  0
    1.7321   -0.5000   -0.0000 C   0  0  0  0  0  0  0  0  0  0  0  0
    1.7321   -1.5000   -0.0000 O   0  0  0  0  0  0  0  0  0  0  0  0
    0.8660   -0.0000   -0.0000 N   0  0  0  0  0  0  0  0  0  0  0  0
    0.0000   -0.5000   -0.0000 C   0  0  0  0  0  0  0  0  0  0  0  0
   -0.8660    0.0000   -0.0000 C   0  0  0  0  0  0  0  0  0  0  0  0
   -0.0000   -1.5000   -0.0000 C   0  0  0  0  0  0  0  0  0  0  0  0
   -0.8660    1.0000   -0.0000 O   0  0  0  0  0  0  0  0  0  0  0  0
   -1.7321   -0.5000   -0.0000 C   0  0  0  0  0  0  0  0  0  0  0  0
   -0.8660   -2.0000   -0.0000 C   0  0  0  0  0  0  0  0  0  0  0  0
   -1.7321    1.5000   -0.0000 C   0  0  0  0  0  0  0  0  0  0  0  0
   -1.7321   -1.5000   -0.0000 C   0  0  0  0  0  0  0  0  0  0  0  0
   -2.5981   -2.0000   -0.0000 O   0  0  0  0  0  0  0  0  0  0  0  0
   -2.5981   -3.0000   -0.0000 C   0  0  0  0  0  0  0  0  0  0  0  0
  1  2  2  0  0  0  0
  2  3  1  0  0  0  0
  2  4  1  0  0  0  0
  3  5  2  0  0  0  0
  3  6  1  0  0  0  0
  4  7  2  0  0  0  0
  4  8  1  0  0  0  0
  5  9  1  0  0  0  0
  5 10  1  0  0  0  0
  6 11  1  0  0  0  0
  6 12  2  0  0  0  0
  7 13  1  0  0  0  0
  8 14  2  0  0  0  0
 10 15  2  0  0  0  0
 11 16  1  0  0  0  0
 13 17  2  0  0  0  0
 14 18  1  0  0  0  0
 15 19  1  0  0  0  0
 16 20  2  0  0  0  0
 16 21  1  0  0  0  0
 18 22  1  0  0  0  0
 19 23  1  0  0  0  0
 23 24  1  0  0  0  0
 24 25  1  0  0  0  0
 24 26  2  0  0  0  0
 25 27  2  0  0  0  0
 26 28  1  0  0  0  0
 28 29  1  0  0  0  0
 29 30  1  0  0  0  0
 30 31  2  0  0  0  0
 30 32  1  0  0  0  0
 32 33  1  0  0  0  0
 33 34  2  0  0  0  0
 33 35  1  0  0  0  0
 34 36  1  0  0  0  0
 34 37  1  0  0  0  0
 35 38  2  0  0  0  0
 36 39  1  0  0  0  0
 37 40  2  0  0  0  0
 40 41  1  0  0  0  0
 41 42  1  0  0  0  0
  7  9  1  0  0  0  0
 12 15  1  0  0  0  0
 14 17  1  0  0  0  0
 27 28  1  0  0  0  0
 38 40  1  0  0  0  0
M  END
>  <S/N>
526

>  <Compound ID>
C_543

>  <PubChem CID>
155545574

>  <Isomeric SMILES>
CC(=O)OC1=CC(=CC2=C1C(=O)C3=C(O2)C=CC(=C3)OC)OCC4=CN(N=N4)CC(=O)NC5=C(C=C(C=C5)OC)OC

>  <IC50 (�M)>
42.6

>  <pIC50>
4.37

$$$$
C_544
Actelion Java MolfileCreator 1.0

 24 26  0  0  0  0  0  0  0  0999 V2000
    5.1962   -1.5000   -0.0000 O   0  0  0  0  0  0  0  0  0  0  0  0
    5.1962   -0.5000   -0.0000 C   0  0  0  0  0  0  0  0  0  0  0  0
    6.0622   -0.0000   -0.0000 O   0  0  0  0  0  0  0  0  0  0  0  0
    4.3301   -0.0000   -0.0000 C   0  0  0  0  0  0  0  0  0  0  0  0
    6.0622    1.0000   -0.0000 C   0  0  0  0  0  0  0  0  0  0  0  0
    3.4641   -0.5000   -0.0000 C   0  0  0  0  0  0  0  0  0  0  0  0
    4.3301    1.0000   -0.0000 C   0  0  0  0  0  0  0  0  0  0  0  0
    5.1962    1.5000   -0.0000 C   0  0  0  0  0  0  0  0  0  0  0  0
    6.9282    1.5000   -0.0000 C   0  0  0  0  0  0  0  0  0  0  0  0
    3.4641   -1.5000   -0.0000 O   0  0  0  0  0  0  0  0  0  0  0  0
    2.5981   -0.0000   -0.0000 N   0  0  0  0  0  0  0  0  0  0  0  0
    5.1962    2.5000   -0.0000 C   0  0  0  0  0  0  0  0  0  0  0  0
    6.9282    2.5000   -0.0000 C   0  0  0  0  0  0  0  0  0  0  0  0
    1.7321   -0.5000   -0.0000 N   0  0  0  0  0  0  0  0  0  0  0  0
    6.0622    3.0000   -0.0000 C   0  0  0  0  0  0  0  0  0  0  0  0
    0.8660   -0.0000   -0.0000 C   0  0  0  0  0  0  0  0  0  0  0  0
    0.0000   -0.5000   -0.0000 C   0  0  0  0  0  0  0  0  0  0  0  0
   -0.8660    0.0000   -0.0000 C   0  0  0  0  0  0  0  0  0  0  0  0
   -0.0000   -1.5000   -0.0000 C   0  0  0  0  0  0  0  0  0  0  0  0
   -0.8660    1.0000   -0.0000 O   0  0  0  0  0  0  0  0  0  0  0  0
   -1.7321   -0.5000   -0.0000 C   0  0  0  0  0  0  0  0  0  0  0  0
   -0.8660   -2.0000   -0.0000 C   0  0  0  0  0  0  0  0  0  0  0  0
   -2.5981    0.0000   -0.0000 O   0  0  0  0  0  0  0  0  0  0  0  0
   -1.7321   -1.5000   -0.0000 C   0  0  0  0  0  0  0  0  0  0  0  0
  1  2  2  0  0  0  0
  2  3  1  0  0  0  0
  2  4  1  0  0  0  0
  3  5  1  0  0  0  0
  4  6  1  0  0  0  0
  4  7  2  0  0  0  0
  5  8  2  0  0  0  0
  5  9  1  0  0  0  0
  6 10  2  0  0  0  0
  6 11  1  0  0  0  0
  8 12  1  0  0  0  0
  9 13  2  0  0  0  0
 11 14  1  0  0  0  0
 12 15  2  0  0  0  0
 14 16  2  0  0  0  0
 16 17  1  0  0  0  0
 17 18  2  0  0  0  0
 17 19  1  0  0  0  0
 18 20  1  0  0  0  0
 18 21  1  0  0  0  0
 19 22  2  0  0  0  0
 21 23  1  0  0  0  0
 21 24  2  0  0  0  0
  7  8  1  0  0  0  0
 13 15  1  0  0  0  0
 22 24  1  0  0  0  0
M  END
>  <S/N>
527

>  <Compound ID>
C_544

>  <PubChem CID>
155546295

>  <Isomeric SMILES>
C1=CC=C2C(=C1)C=C(C(=O)O2)C(=O)N/N=C/C3=C(C(=CC=C3)O)O

>  <IC50 (�M)>
1.1

>  <pIC50>
5.96

$$$$
C_545
Actelion Java MolfileCreator 1.0

 43 49  0  0  0  0  0  0  0  0999 V2000
    3.1485   -1.4941   -0.0000 F   0  0  0  0  0  0  0  0  0  0  0  0
    4.1485   -1.4941   -0.0000 C   0  0  0  0  0  0  0  0  0  0  0  0
    4.6485   -0.6280   -0.0000 C   0  0  0  0  0  0  0  0  0  0  0  0
    4.6485   -2.3601   -0.0000 C   0  0  0  0  0  0  0  0  0  0  0  0
    5.6485   -0.6280   -0.0000 C   0  0  0  0  0  0  0  0  0  0  0  0
    5.6485   -2.3601   -0.0000 C   0  0  0  0  0  0  0  0  0  0  0  0
    6.3176    0.1151   -0.0000 C   0  0  0  0  0  0  0  0  0  0  0  0
    6.1485   -1.4941   -0.0000 C   0  0  0  0  0  0  0  0  0  0  0  0
    6.1097    1.0933   -0.0000 C   0  0  0  0  0  0  0  0  0  0  0  0
    7.2312   -0.2916   -0.0000 C   0  0  0  0  0  0  0  0  0  0  0  0
    7.1266   -1.2861   -0.0000 N   0  0  0  0  0  0  0  0  0  0  0  0
    6.7788    1.8364   -0.0000 N   0  0  0  0  0  0  0  0  0  0  0  0
    5.1962    1.5000   -0.0000 N   0  0  0  0  0  0  0  0  0  0  0  0
    8.0972    0.2084   -0.0000 C   0  0  0  0  0  0  0  0  0  0  0  0
    6.2788    2.7024   -0.0000 C   0  0  0  0  0  0  0  0  0  0  0  0
    4.3301    1.0000   -0.0000 C   0  0  0  0  0  0  0  0  0  0  0  0
    5.3007    2.4945   -0.0000 C   0  0  0  0  0  0  0  0  0  0  0  0
    8.0972    1.2084   -0.0000 C   0  0  0  0  0  0  0  0  0  0  0  0
    8.9632   -0.2916   -0.0000 C   0  0  0  0  0  0  0  0  0  0  0  0
    6.6856    3.6160   -0.0000 C   0  0  0  0  0  0  0  0  0  0  0  0
    3.4641    1.5000   -0.0000 C   0  0  0  0  0  0  0  0  0  0  0  0
    4.3301    0.0000   -0.0000 C   0  0  0  0  0  0  0  0  0  0  0  0
    4.5575    3.1637   -0.0000 C   0  0  0  0  0  0  0  0  0  0  0  0
    8.9632    1.7084   -0.0000 C   0  0  0  0  0  0  0  0  0  0  0  0
    9.8292    0.2084   -0.0000 C   0  0  0  0  0  0  0  0  0  0  0  0
    7.6801    3.7205   -0.0000 C   0  0  0  0  0  0  0  0  0  0  0  0
    6.0978    4.4250   -0.0000 C   0  0  0  0  0  0  0  0  0  0  0  0
    2.5981    1.0000   -0.0000 C   0  0  0  0  0  0  0  0  0  0  0  0
    3.4641   -0.5000   -0.0000 C   0  0  0  0  0  0  0  0  0  0  0  0
    4.7654    4.1418   -0.0000 C   0  0  0  0  0  0  0  0  0  0  0  0
    3.6065    2.8546   -0.0000 C   0  0  0  0  0  0  0  0  0  0  0  0
    9.8292    1.2084   -0.0000 C   0  0  0  0  0  0  0  0  0  0  0  0
    8.0868    4.6341   -0.0000 C   0  0  0  0  0  0  0  0  0  0  0  0
    6.5045    5.3385   -0.0000 C   0  0  0  0  0  0  0  0  0  0  0  0
    2.5981   -0.0000   -0.0000 C   0  0  0  0  0  0  0  0  0  0  0  0
    4.0223    4.8109   -0.0000 C   0  0  0  0  0  0  0  0  0  0  0  0
    2.8633    3.5238   -0.0000 C   0  0  0  0  0  0  0  0  0  0  0  0
    7.4990    5.4431   -0.0000 C   0  0  0  0  0  0  0  0  0  0  0  0
    1.7321   -0.5000   -0.0000 N   0  0  0  0  0  0  0  0  0  0  0  0
    3.0712    4.5019   -0.0000 C   0  0  0  0  0  0  0  0  0  0  0  0
    0.8660   -0.0000   -0.0000 C   0  0  0  0  0  0  0  0  0  0  0  0
    0.8660    1.0000   -0.0000 O   0  0  0  0  0  0  0  0  0  0  0  0
    0.0000   -0.5000   -0.0000 C   0  0  0  0  0  0  0  0  0  0  0  0
  1  2  1  0  0  0  0
  2  3  2  0  0  0  0
  2  4  1  0  0  0  0
  3  5  1  0  0  0  0
  4  6  2  0  0  0  0
  5  7  1  0  0  0  0
  5  8  2  0  0  0  0
  7  9  1  0  0  0  0
  7 10  2  0  0  0  0
  8 11  1  0  0  0  0
  9 12  2  0  0  0  0
  9 13  1  0  0  0  0
 10 14  1  0  0  0  0
 12 15  1  0  0  0  0
 13 16  1  0  0  0  0
 13 17  1  0  0  0  0
 14 18  2  0  0  0  0
 14 19  1  0  0  0  0
 15 20  1  0  0  0  0
 16 21  2  0  0  0  0
 16 22  1  0  0  0  0
 17 23  1  0  0  0  0
 18 24  1  0  0  0  0
 19 25  2  0  0  0  0
 20 26  2  0  0  0  0
 20 27  1  0  0  0  0
 21 28  1  0  0  0  0
 22 29  2  0  0  0  0
 23 30  2  0  0  0  0
 23 31  1  0  0  0  0
 24 32  2  0  0  0  0
 26 33  1  0  0  0  0
 27 34  2  0  0  0  0
 28 35  2  0  0  0  0
 30 36  1  0  0  0  0
 31 37  2  0  0  0  0
 33 38  2  0  0  0  0
 35 39  1  0  0  0  0
 36 40  2  0  0  0  0
 39 41  1  0  0  0  0
 41 42  2  0  0  0  0
 41 43  1  0  0  0  0
  6  8  1  0  0  0  0
 10 11  1  0  0  0  0
 15 17  2  0  0  0  0
 25 32  1  0  0  0  0
 29 35  1  0  0  0  0
 34 38  1  0  0  0  0
 37 40  1  0  0  0  0
M  END
>  <S/N>
528

>  <Compound ID>
C_545

>  <PubChem CID>
155546457

>  <Isomeric SMILES>
CC(=O)NC1=CC=C(C=C1)N2C(=C(N=C2C3=C(NC4=C3C=C(C=C4)F)C5=CC=CC=C5)C6=CC=CC=C6)C7=CC=CC=C7

>  <IC50 (�M)>
8.3

>  <pIC50>
5.08

$$$$
C_546
Actelion Java MolfileCreator 1.0

 37 41  0  0  0  0  0  0  0  0999 V2000
    6.5665   -0.1399   -0.0000 S   0  0  0  0  0  0  0  0  0  0  0  0
    5.1962   -0.7500   -0.0000 C   0  0  0  0  0  0  0  0  0  0  0  0
    7.5702   -1.2546   -0.0000 C   0  0  0  0  0  0  0  0  0  0  0  0
    3.8971   -0.0000   -0.0000 N   0  0  0  0  0  0  0  0  0  0  0  0
    5.3529   -2.2418   -0.0000 N   0  0  0  0  0  0  0  0  0  0  0  0
    6.8202   -2.5537   -0.0000 C   0  0  0  0  0  0  0  0  0  0  0  0
    9.0619   -1.0978   -0.0000 C   0  0  0  0  0  0  0  0  0  0  0  0
    3.8971    1.5000   -0.0000 N   0  0  0  0  0  0  0  0  0  0  0  0
    4.2382   -3.2455   -0.0000 C   0  0  0  0  0  0  0  0  0  0  0  0
    7.4303   -3.9240   -0.0000 O   0  0  0  0  0  0  0  0  0  0  0  0
    9.6721    0.2725   -0.0000 C   0  0  0  0  0  0  0  0  0  0  0  0
    2.5981    2.2500   -0.0000 C   0  0  0  0  0  0  0  0  0  0  0  0
    2.8116   -2.7820   -0.0000 C   0  0  0  0  0  0  0  0  0  0  0  0
    4.5501   -4.7127   -0.0000 C   0  0  0  0  0  0  0  0  0  0  0  0
   11.1638    0.4293   -0.0000 C   0  0  0  0  0  0  0  0  0  0  0  0
    8.7904    1.4860   -0.0000 C   0  0  0  0  0  0  0  0  0  0  0  0
    1.2990    1.5000   -0.0000 O   0  0  0  0  0  0  0  0  0  0  0  0
    2.5981    3.7500   -0.0000 C   0  0  0  0  0  0  0  0  0  0  0  0
    1.6969   -3.7856   -0.0000 C   0  0  0  0  0  0  0  0  0  0  0  0
    3.4354   -5.7164   -0.0000 C   0  0  0  0  0  0  0  0  0  0  0  0
   11.7739    1.7996   -0.0000 C   0  0  0  0  0  0  0  0  0  0  0  0
    9.4005    2.8563   -0.0000 C   0  0  0  0  0  0  0  0  0  0  0  0
    1.2990    4.5000   -0.0000 C   0  0  0  0  0  0  0  0  0  0  0  0
    3.8971    4.5000   -0.0000 C   0  0  0  0  0  0  0  0  0  0  0  0
    2.0088   -5.2529   -0.0000 C   0  0  0  0  0  0  0  0  0  0  0  0
    0.2703   -3.3221   -0.0000 C   0  0  0  0  0  0  0  0  0  0  0  0
   10.8923    3.0131   -0.0000 C   0  0  0  0  0  0  0  0  0  0  0  0
   -0.0000    3.7500   -0.0000 O   0  0  0  0  0  0  0  0  0  0  0  0
    1.2990    6.0000   -0.0000 O   0  0  0  0  0  0  0  0  0  0  0  0
    3.8971    6.0000   -0.0000 C   0  0  0  0  0  0  0  0  0  0  0  0
    0.8941   -6.2566   -0.0000 C   0  0  0  0  0  0  0  0  0  0  0  0
   11.5024    4.3835   -0.0000 F   0  0  0  0  0  0  0  0  0  0  0  0
    2.5981    6.7500   -0.0000 C   0  0  0  0  0  0  0  0  0  0  0  0
    5.1962    6.7500   -0.0000 C   0  0  0  0  0  0  0  0  0  0  0  0
    2.5981    8.2500   -0.0000 C   0  0  0  0  0  0  0  0  0  0  0  0
    5.1962    8.2500   -0.0000 C   0  0  0  0  0  0  0  0  0  0  0  0
    3.8971    9.0000   -0.0000 C   0  0  0  0  0  0  0  0  0  0  0  0
  1  2  1  0  0  0  0
  1  3  1  0  0  0  0
  2  4  2  0  0  0  0
  2  5  1  0  0  0  0
  3  6  1  0  0  0  0
  3  7  2  0  0  0  0
  4  8  1  0  0  0  0
  5  9  1  0  0  0  0
  6 10  2  0  0  0  0
  7 11  1  0  0  0  0
  8 12  1  0  0  0  0
  9 13  2  0  0  0  0
  9 14  1  0  0  0  0
 11 15  2  0  0  0  0
 11 16  1  0  0  0  0
 12 17  2  0  0  0  0
 12 18  1  0  0  0  0
 13 19  1  0  0  0  0
 14 20  2  0  0  0  0
 15 21  1  0  0  0  0
 16 22  2  0  0  0  0
 18 23  1  0  0  0  0
 18 24  2  0  0  0  0
 19 25  2  0  0  0  0
 19 26  1  0  0  0  0
 21 27  2  0  0  0  0
 23 28  2  0  0  0  0
 23 29  1  0  0  0  0
 24 30  1  0  0  0  0
 25 31  1  0  0  0  0
 27 32  1  0  0  0  0
 29 33  1  0  0  0  0
 30 34  2  0  0  0  0
 33 35  2  0  0  0  0
 34 36  1  0  0  0  0
 35 37  1  0  0  0  0
  5  6  1  0  0  0  0
 20 25  1  0  0  0  0
 22 27  1  0  0  0  0
 30 33  1  0  0  0  0
 36 37  2  0  0  0  0
M  END
>  <S/N>
529

>  <Compound ID>
C_546

>  <PubChem CID>
155546505

>  <Isomeric SMILES>
CC1=C(C=C(C=C1)N\2C(=O)/C(=C/C3=CC=C(C=C3)F)/S/C2=N\NC(=O)C4=CC5=CC=CC=C5OC4=O)C

>  <IC50 (�M)>
0.09

>  <pIC50>
7.05

$$$$
C_547
Actelion Java MolfileCreator 1.0

 40 44  0  0  1  0  0  0  0  0999 V2000
    6.9282    2.5000   -0.0000 Cl  0  0  0  0  0  0  0  0  0  0  0  0
    6.9282    1.5000   -0.0000 C   0  0  0  0  0  0  0  0  0  0  0  0
    6.0622    1.0000   -0.0000 C   0  0  0  0  0  0  0  0  0  0  0  0
    7.7942    1.0000   -0.0000 C   0  0  0  0  0  0  0  0  0  0  0  0
    6.0622   -0.0000   -0.0000 C   0  0  0  0  0  0  0  0  0  0  0  0
    7.7942   -0.0000   -0.0000 C   0  0  0  0  0  0  0  0  0  0  0  0
    5.1962   -0.5000   -0.0000 N   0  0  0  0  0  0  0  0  0  0  0  0
    6.9282   -0.5000   -0.0000 C   0  0  0  0  0  0  0  0  0  0  0  0
    4.3301   -0.0000   -0.0000 C   0  0  0  0  0  0  0  0  0  0  0  0
    5.1962   -1.5000   -0.0000 C   0  0  0  0  0  0  0  0  0  0  0  0
    3.4641   -0.5000   -0.0000 C   0  0  0  0  0  0  0  0  0  0  0  0
    4.3301    1.0000   -0.0000 C   0  0  0  0  0  0  0  0  0  0  0  0
    6.0622   -2.0000   -0.0000 C   0  0  0  0  0  0  0  0  0  0  0  0
    4.3301   -2.0000   -0.0000 C   0  0  0  0  0  0  0  0  0  0  0  0
    3.4641   -1.5000   -0.0000 C   0  0  0  0  0  0  0  0  0  0  0  0
    2.5981   -0.0000   -0.0000 C   0  0  0  0  0  0  0  0  0  0  0  0
    5.1962    1.5000   -0.0000 C   0  0  0  0  0  0  0  0  0  0  0  0
    3.4641    1.5000   -0.0000 C   0  0  0  0  0  0  0  0  0  0  0  0
    6.0622   -3.0000   -0.0000 C   0  0  0  0  0  0  0  0  0  0  0  0
    6.9282   -1.5000   -0.0000 C   0  0  0  0  0  0  0  0  0  0  0  0
    2.5981   -2.0000   -0.0000 N   0  0  0  0  0  0  0  0  0  0  0  0
    2.5981    1.0000   -0.0000 O   0  0  0  0  0  0  0  0  0  0  0  0
    1.7321   -0.5000   -0.0000 O   0  0  0  0  0  0  0  0  0  0  0  0
    5.1962    2.5000   -0.0000 C   0  0  0  0  0  0  0  0  0  0  0  0
    3.4641    2.5000   -0.0000 C   0  0  0  0  0  0  0  0  0  0  0  0
    6.9282   -3.5000   -0.0000 C   0  0  0  0  0  0  0  0  0  0  0  0
    7.7942   -2.0000   -0.0000 C   0  0  0  0  0  0  0  0  0  0  0  0
    2.5981   -3.0000   -0.0000 C   0  0  0  0  0  0  0  0  0  0  0  0
    0.8660   -0.0000   -0.0000 C   0  0  0  0  0  0  0  0  0  0  0  0
    4.3301    3.0000   -0.0000 C   0  0  0  0  0  0  0  0  0  0  0  0
    7.7942   -3.0000   -0.0000 C   0  0  0  0  0  0  0  0  0  0  0  0
    1.7321   -3.5000   -0.0000 C   0  0  0  0  0  0  0  0  0  0  0  0
    3.4641   -3.5000   -0.0000 C   0  0  0  0  0  0  0  0  0  0  0  0
    0.0000   -0.5000   -0.0000 C   0  0  0  0  0  0  0  0  0  0  0  0
    4.3301    4.0000   -0.0000 Cl  0  0  0  0  0  0  0  0  0  0  0  0
    8.6603   -3.5000   -0.0000 Cl  0  0  0  0  0  0  0  0  0  0  0  0
    1.7321   -4.5000   -0.0000 C   0  0  0  0  0  0  0  0  0  0  0  0
    3.4641   -4.5000   -0.0000 C   0  0  0  0  0  0  0  0  0  0  0  0
    0.8660   -5.0000   -0.0000 Cl  0  0  0  0  0  0  0  0  0  0  0  0
    2.5981   -5.0000   -0.0000 C   0  0  0  0  0  0  0  0  0  0  0  0
  1  2  1  0  0  0  0
  2  3  2  0  0  0  0
  2  4  1  0  0  0  0
  3  5  1  0  0  0  0
  4  6  2  0  0  0  0
  5  7  1  0  0  0  0
  5  8  2  0  0  0  0
  7  9  1  0  0  0  0
  7 10  1  0  0  0  0
  9 11  1  0  0  0  0
  9 12  1  1  0  0  0
 10 13  1  6  0  0  0
 10 14  1  0  0  0  0
 11 15  2  0  0  0  0
 11 16  1  0  0  0  0
 12 17  2  0  0  0  0
 12 18  1  0  0  0  0
 13 19  2  0  0  0  0
 13 20  1  0  0  0  0
 15 21  1  0  0  0  0
 16 22  2  0  0  0  0
 16 23  1  0  0  0  0
 17 24  1  0  0  0  0
 18 25  2  0  0  0  0
 19 26  1  0  0  0  0
 20 27  2  0  0  0  0
 21 28  1  0  0  0  0
 23 29  1  0  0  0  0
 24 30  2  0  0  0  0
 26 31  2  0  0  0  0
 28 32  2  0  0  0  0
 28 33  1  0  0  0  0
 29 34  1  0  0  0  0
 30 35  1  0  0  0  0
 31 36  1  0  0  0  0
 32 37  1  0  0  0  0
 33 38  2  0  0  0  0
 37 39  1  0  0  0  0
 37 40  2  0  0  0  0
  6  8  1  0  0  0  0
 14 15  1  0  0  0  0
 25 30  1  0  0  0  0
 27 31  1  0  0  0  0
 38 40  1  0  0  0  0
M  END
>  <S/N>
530

>  <Compound ID>
C_547

>  <PubChem CID>
155546673

>  <Isomeric SMILES>
CCOC(=O)C1=C(C[C@H](N([C@@H]1C2=CC=C(C=C2)Cl)C3=CC(=CC=C3)Cl)C4=CC=C(C=C4)Cl)NC5=CC(=CC=C5)Cl

>  <IC50 (�M)>
2.3

>  <pIC50>
5.64

$$$$
C_548
Actelion Java MolfileCreator 1.0

 62 70  0  0  0  0  0  0  0  0999 V2000
    3.7195   -1.3849   -0.0000 S   0  0  0  0  0  0  0  0  0  0  0  0
    3.5116   -0.4067   -0.0000 C   0  0  0  0  0  0  0  0  0  0  0  0
    4.1808    0.3364   -0.0000 O   0  0  0  0  0  0  0  0  0  0  0  0
    2.5981   -0.0000   -0.0000 N   0  0  0  0  0  0  0  0  0  0  0  0
    3.6808    1.2024   -0.0000 C   0  0  0  0  0  0  0  0  0  0  0  0
    2.7026    0.9945   -0.0000 N   0  0  0  0  0  0  0  0  0  0  0  0
    1.7321   -0.5000   -0.0000 C   0  0  0  0  0  0  0  0  0  0  0  0
    4.0875    2.1160   -0.0000 C   0  0  0  0  0  0  0  0  0  0  0  0
    0.8660   -0.0000   -0.0000 N   0  0  0  0  0  0  0  0  0  0  0  0
    1.7321   -1.5000   -0.0000 C   0  0  0  0  0  0  0  0  0  0  0  0
    5.0820    2.2205   -0.0000 C   0  0  0  0  0  0  0  0  0  0  0  0
    3.4997    2.9250   -0.0000 C   0  0  0  0  0  0  0  0  0  0  0  0
    0.0000   -0.5000   -0.0000 C   0  0  0  0  0  0  0  0  0  0  0  0
    0.8660   -2.0000   -0.0000 C   0  0  0  0  0  0  0  0  0  0  0  0
    2.5981   -2.0000   -0.0000 C   0  0  0  0  0  0  0  0  0  0  0  0
    5.6698    1.4115   -0.0000 O   0  0  0  0  0  0  0  0  0  0  0  0
    5.4887    3.1341   -0.0000 O   0  0  0  0  0  0  0  0  0  0  0  0
    3.9064    3.8385   -0.0000 C   0  0  0  0  0  0  0  0  0  0  0  0
   -0.8660    0.0000   -0.0000 C   0  0  0  0  0  0  0  0  0  0  0  0
   -0.0000   -1.5000   -0.0000 C   0  0  0  0  0  0  0  0  0  0  0  0
    0.8660   -3.0000   -0.0000 C   0  0  0  0  0  0  0  0  0  0  0  0
    2.5981   -3.0000   -0.0000 C   0  0  0  0  0  0  0  0  0  0  0  0
    4.9010    3.9431   -0.0000 C   0  0  0  0  0  0  0  0  0  0  0  0
    3.3187    4.6476   -0.0000 C   0  0  0  0  0  0  0  0  0  0  0  0
   -1.7321   -0.5000   -0.0000 C   0  0  0  0  0  0  0  0  0  0  0  0
   -0.8660   -2.0000   -0.0000 C   0  0  0  0  0  0  0  0  0  0  0  0
    1.7321   -3.5000   -0.0000 C   0  0  0  0  0  0  0  0  0  0  0  0
    5.3077    4.8566   -0.0000 C   0  0  0  0  0  0  0  0  0  0  0  0
    3.7254    5.5611   -0.0000 C   0  0  0  0  0  0  0  0  0  0  0  0
   -1.7321   -1.5000   -0.0000 C   0  0  0  0  0  0  0  0  0  0  0  0
    1.7321   -4.5000   -0.0000 N   0  0  0  0  0  0  0  0  0  0  0  0
    4.7199    5.6656   -0.0000 C   0  0  0  0  0  0  0  0  0  0  0  0
   -2.5981   -2.0000   -0.0000 N   0  0  0  0  0  0  0  0  0  0  0  0
    0.8660   -5.0000   -0.0000 C   0  0  0  0  0  0  0  0  0  0  0  0
    2.5981   -5.0000   -0.0000 C   0  0  0  0  0  0  0  0  0  0  0  0
   -3.4641   -1.5000   -0.0000 C   0  0  0  0  0  0  0  0  0  0  0  0
   -3.4641   -0.5000   -0.0000 N   0  0  0  0  0  0  0  0  0  0  0  0
   -4.3301   -2.0000   -0.0000 C   0  0  0  0  0  0  0  0  0  0  0  0
   -2.6551    0.0878   -0.0000 N   0  0  0  0  0  0  0  0  0  0  0  0
   -4.2731    0.0878   -0.0000 C   0  0  0  0  0  0  0  0  0  0  0  0
   -5.1962   -1.5000   -0.0000 C   0  0  0  0  0  0  0  0  0  0  0  0
   -4.3301   -3.0000   -0.0000 C   0  0  0  0  0  0  0  0  0  0  0  0
   -2.9641    1.0388   -0.0000 C   0  0  0  0  0  0  0  0  0  0  0  0
   -5.2242   -0.2212   -0.0000 S   0  0  0  0  0  0  0  0  0  0  0  0
   -3.9641    1.0388   -0.0000 O   0  0  0  0  0  0  0  0  0  0  0  0
   -6.0622   -2.0000   -0.0000 C   0  0  0  0  0  0  0  0  0  0  0  0
   -5.1962   -3.5000   -0.0000 C   0  0  0  0  0  0  0  0  0  0  0  0
   -2.3763    1.8479   -0.0000 C   0  0  0  0  0  0  0  0  0  0  0  0
   -6.0622   -3.0000   -0.0000 C   0  0  0  0  0  0  0  0  0  0  0  0
   -1.3818    1.7433   -0.0000 C   0  0  0  0  0  0  0  0  0  0  0  0
   -2.7831    2.7614   -0.0000 C   0  0  0  0  0  0  0  0  0  0  0  0
   -6.9282   -3.5000   -0.0000 N   0  0  0  0  0  0  0  0  0  0  0  0
   -0.7940    2.5523   -0.0000 C   0  0  0  0  0  0  0  0  0  0  0  0
   -0.9751    0.8298   -0.0000 C   0  0  0  0  0  0  0  0  0  0  0  0
   -2.1953    3.5704   -0.0000 C   0  0  0  0  0  0  0  0  0  0  0  0
   -7.7942   -3.0000   -0.0000 C   0  0  0  0  0  0  0  0  0  0  0  0
   -6.9282   -4.5000   -0.0000 C   0  0  0  0  0  0  0  0  0  0  0  0
   -1.2007    3.4659   -0.0000 O   0  0  0  0  0  0  0  0  0  0  0  0
    0.2005    2.4478   -0.0000 C   0  0  0  0  0  0  0  0  0  0  0  0
    0.0195    0.7253   -0.0000 C   0  0  0  0  0  0  0  0  0  0  0  0
   -2.6020    4.4840   -0.0000 O   0  0  0  0  0  0  0  0  0  0  0  0
    0.6072    1.5343   -0.0000 C   0  0  0  0  0  0  0  0  0  0  0  0
  1  2  2  0  0  0  0
  2  3  1  0  0  0  0
  2  4  1  0  0  0  0
  3  5  1  0  0  0  0
  4  6  1  0  0  0  0
  4  7  1  0  0  0  0
  5  8  1  0  0  0  0
  7  9  1  0  0  0  0
  7 10  1  0  0  0  0
  8 11  1  0  0  0  0
  8 12  2  0  0  0  0
  9 13  1  0  0  0  0
 10 14  2  0  0  0  0
 10 15  1  0  0  0  0
 11 16  2  0  0  0  0
 11 17  1  0  0  0  0
 12 18  1  0  0  0  0
 13 19  2  0  0  0  0
 13 20  1  0  0  0  0
 14 21  1  0  0  0  0
 15 22  2  0  0  0  0
 17 23  1  0  0  0  0
 18 24  1  0  0  0  0
 19 25  1  0  0  0  0
 20 26  2  0  0  0  0
 21 27  2  0  0  0  0
 23 28  1  0  0  0  0
 24 29  2  0  0  0  0
 25 30  2  0  0  0  0
 27 31  1  0  0  0  0
 28 32  2  0  0  0  0
 30 33  1  0  0  0  0
 31 34  1  0  0  0  0
 31 35  1  0  0  0  0
 33 36  1  0  0  0  0
 36 37  1  0  0  0  0
 36 38  1  0  0  0  0
 37 39  1  0  0  0  0
 37 40  1  0  0  0  0
 38 41  2  0  0  0  0
 38 42  1  0  0  0  0
 39 43  2  0  0  0  0
 40 44  2  0  0  0  0
 40 45  1  0  0  0  0
 41 46  1  0  0  0  0
 42 47  2  0  0  0  0
 43 48  1  0  0  0  0
 46 49  2  0  0  0  0
 48 50  1  0  0  0  0
 48 51  2  0  0  0  0
 49 52  1  0  0  0  0
 50 53  2  0  0  0  0
 50 54  1  0  0  0  0
 51 55  1  0  0  0  0
 52 56  1  0  0  0  0
 52 57  1  0  0  0  0
 53 58  1  0  0  0  0
 53 59  1  0  0  0  0
 54 60  2  0  0  0  0
 55 61  2  0  0  0  0
 59 62  2  0  0  0  0
  5  6  2  0  0  0  0
 18 23  2  0  0  0  0
 22 27  1  0  0  0  0
 26 30  1  0  0  0  0
 29 32  1  0  0  0  0
 43 45  1  0  0  0  0
 47 49  1  0  0  0  0
 55 58  1  0  0  0  0
 60 62  1  0  0  0  0
M  END
>  <S/N>
531

>  <Compound ID>
C_548

>  <PubChem CID>
155547288

>  <Isomeric SMILES>
CN(C)C1=CC=C(C=C1)C(NC2=CC=C(C=C2)NC(C3=CC=C(C=C3)N(C)C)N4C(=S)OC(=N4)C5=CC(=O)OC6=CC=CC=C65)N7C(=S)OC(=N7)C8=CC9=CC=CC=C9OC8=O

>  <IC50 (�M)>
0.07

>  <pIC50>
7.15

$$$$
C_549
Actelion Java MolfileCreator 1.0

 20 22  0  0  0  0  0  0  0  0999 V2000
    0.8660   -2.0000   -0.0000 Cl  0  0  0  0  0  0  0  0  0  0  0  0
    1.7321   -1.5000   -0.0000 C   0  0  0  0  0  0  0  0  0  0  0  0
    2.5981   -2.0000   -0.0000 C   0  0  0  0  0  0  0  0  0  0  0  0
    1.7321   -0.5000   -0.0000 C   0  0  0  0  0  0  0  0  0  0  0  0
    2.5981   -3.0000   -0.0000 F   0  0  0  0  0  0  0  0  0  0  0  0
    3.4641   -1.5000   -0.0000 C   0  0  0  0  0  0  0  0  0  0  0  0
    0.8660   -0.0000   -0.0000 C   0  0  0  0  0  0  0  0  0  0  0  0
    2.5981    0.0000   -0.0000 C   0  0  0  0  0  0  0  0  0  0  0  0
    4.3301   -2.0000   -0.0000 F   0  0  0  0  0  0  0  0  0  0  0  0
    3.4641   -0.5000   -0.0000 C   0  0  0  0  0  0  0  0  0  0  0  0
    0.8660    1.0000   -0.0000 O   0  0  0  0  0  0  0  0  0  0  0  0
    0.0000   -0.5000   -0.0000 N   0  0  0  0  0  0  0  0  0  0  0  0
   -0.1045   -1.4945   -0.0000 N   0  0  0  0  0  0  0  0  0  0  0  0
   -0.9135   -0.0933   -0.0000 C   0  0  0  0  0  0  0  0  0  0  0  0
   -1.0827   -1.7024   -0.0000 N   0  0  0  0  0  0  0  0  0  0  0  0
   -1.5827   -0.8364   -0.0000 C   0  0  0  0  0  0  0  0  0  0  0  0
   -1.2226    0.8578   -0.0000 C   0  0  0  0  0  0  0  0  0  0  0  0
   -2.5608   -0.6285   -0.0000 C   0  0  0  0  0  0  0  0  0  0  0  0
   -2.2007    1.0657   -0.0000 C   0  0  0  0  0  0  0  0  0  0  0  0
   -2.8698    0.3226   -0.0000 C   0  0  0  0  0  0  0  0  0  0  0  0
  1  2  1  0  0  0  0
  2  3  2  0  0  0  0
  2  4  1  0  0  0  0
  3  5  1  0  0  0  0
  3  6  1  0  0  0  0
  4  7  1  0  0  0  0
  4  8  2  0  0  0  0
  6  9  1  0  0  0  0
  6 10  2  0  0  0  0
  7 11  2  0  0  0  0
  7 12  1  0  0  0  0
 12 13  1  0  0  0  0
 12 14  1  0  0  0  0
 13 15  2  0  0  0  0
 14 16  2  0  0  0  0
 14 17  1  0  0  0  0
 16 18  1  0  0  0  0
 17 19  2  0  0  0  0
 18 20  2  0  0  0  0
  8 10  1  0  0  0  0
 15 16  1  0  0  0  0
 19 20  1  0  0  0  0
M  END
>  <S/N>
532

>  <Compound ID>
C_549

>  <PubChem CID>
155547853

>  <Isomeric SMILES>
C1=CC=C2C(=C1)N=NN2C(=O)C3=C(C(=C(C=C3)F)F)Cl

>  <IC50 (�M)>
5.63

>  <pIC50>
5.25

$$$$
C_550
Actelion Java MolfileCreator 1.0

 58 66  0  0  0  0  0  0  0  0999 V2000
    3.4641    2.5000   -0.0000 Cl  0  0  0  0  0  0  0  0  0  0  0  0
    3.4641    1.5000   -0.0000 C   0  0  0  0  0  0  0  0  0  0  0  0
    2.5981    1.0000   -0.0000 C   0  0  0  0  0  0  0  0  0  0  0  0
    4.3301    1.0000   -0.0000 C   0  0  0  0  0  0  0  0  0  0  0  0
    2.5981   -0.0000   -0.0000 C   0  0  0  0  0  0  0  0  0  0  0  0
    4.3301   -0.0000   -0.0000 C   0  0  0  0  0  0  0  0  0  0  0  0
    3.4641   -0.5000   -0.0000 C   0  0  0  0  0  0  0  0  0  0  0  0
    1.7321   -0.5000   -0.0000 C   0  0  0  0  0  0  0  0  0  0  0  0
    1.7321   -1.5000   -0.0000 N   0  0  0  0  0  0  0  0  0  0  0  0
    0.8660   -0.0000   -0.0000 N   0  0  0  0  0  0  0  0  0  0  0  0
    0.9230   -2.0878   -0.0000 N   0  0  0  0  0  0  0  0  0  0  0  0
    2.5411   -2.0878   -0.0000 C   0  0  0  0  0  0  0  0  0  0  0  0
    0.0000   -0.5000   -0.0000 C   0  0  0  0  0  0  0  0  0  0  0  0
    1.2321   -3.0388   -0.0000 C   0  0  0  0  0  0  0  0  0  0  0  0
    3.4921   -1.7788   -0.0000 S   0  0  0  0  0  0  0  0  0  0  0  0
    2.2321   -3.0388   -0.0000 O   0  0  0  0  0  0  0  0  0  0  0  0
   -0.8660    0.0000   -0.0000 C   0  0  0  0  0  0  0  0  0  0  0  0
   -0.0000   -1.5000   -0.0000 C   0  0  0  0  0  0  0  0  0  0  0  0
    0.6443   -3.8479   -0.0000 C   0  0  0  0  0  0  0  0  0  0  0  0
   -1.7321   -0.5000   -0.0000 C   0  0  0  0  0  0  0  0  0  0  0  0
   -0.8660   -2.0000   -0.0000 C   0  0  0  0  0  0  0  0  0  0  0  0
   -0.3503   -3.7433   -0.0000 C   0  0  0  0  0  0  0  0  0  0  0  0
    1.0510   -4.7614   -0.0000 C   0  0  0  0  0  0  0  0  0  0  0  0
   -1.7321   -1.5000   -0.0000 C   0  0  0  0  0  0  0  0  0  0  0  0
   -0.7570   -2.8298   -0.0000 O   0  0  0  0  0  0  0  0  0  0  0  0
   -0.9380   -4.5523   -0.0000 O   0  0  0  0  0  0  0  0  0  0  0  0
    0.4632   -5.5704   -0.0000 C   0  0  0  0  0  0  0  0  0  0  0  0
   -2.5981   -2.0000   -0.0000 N   0  0  0  0  0  0  0  0  0  0  0  0
   -0.5313   -5.4659   -0.0000 C   0  0  0  0  0  0  0  0  0  0  0  0
    0.8700   -6.4840   -0.0000 C   0  0  0  0  0  0  0  0  0  0  0  0
   -3.4641   -1.5000   -0.0000 C   0  0  0  0  0  0  0  0  0  0  0  0
   -1.1191   -6.2749   -0.0000 C   0  0  0  0  0  0  0  0  0  0  0  0
    0.2822   -7.2930   -0.0000 C   0  0  0  0  0  0  0  0  0  0  0  0
   -3.4641   -0.5000   -0.0000 N   0  0  0  0  0  0  0  0  0  0  0  0
   -4.3301   -2.0000   -0.0000 C   0  0  0  0  0  0  0  0  0  0  0  0
   -0.7124   -7.1885   -0.0000 C   0  0  0  0  0  0  0  0  0  0  0  0
   -2.6551    0.0878   -0.0000 N   0  0  0  0  0  0  0  0  0  0  0  0
   -4.2731    0.0878   -0.0000 C   0  0  0  0  0  0  0  0  0  0  0  0
   -5.1962   -1.5000   -0.0000 C   0  0  0  0  0  0  0  0  0  0  0  0
   -4.3301   -3.0000   -0.0000 C   0  0  0  0  0  0  0  0  0  0  0  0
   -2.9641    1.0388   -0.0000 C   0  0  0  0  0  0  0  0  0  0  0  0
   -5.2242   -0.2212   -0.0000 S   0  0  0  0  0  0  0  0  0  0  0  0
   -3.9641    1.0388   -0.0000 O   0  0  0  0  0  0  0  0  0  0  0  0
   -6.0622   -2.0000   -0.0000 C   0  0  0  0  0  0  0  0  0  0  0  0
   -5.1962   -3.5000   -0.0000 C   0  0  0  0  0  0  0  0  0  0  0  0
   -2.3763    1.8479   -0.0000 C   0  0  0  0  0  0  0  0  0  0  0  0
   -6.9282   -1.5000   -0.0000 Cl  0  0  0  0  0  0  0  0  0  0  0  0
   -6.0622   -3.0000   -0.0000 C   0  0  0  0  0  0  0  0  0  0  0  0
   -1.3818    1.7433   -0.0000 C   0  0  0  0  0  0  0  0  0  0  0  0
   -2.7831    2.7614   -0.0000 C   0  0  0  0  0  0  0  0  0  0  0  0
   -0.7940    2.5523   -0.0000 C   0  0  0  0  0  0  0  0  0  0  0  0
   -0.9751    0.8298   -0.0000 C   0  0  0  0  0  0  0  0  0  0  0  0
   -2.1953    3.5704   -0.0000 C   0  0  0  0  0  0  0  0  0  0  0  0
   -1.2007    3.4659   -0.0000 O   0  0  0  0  0  0  0  0  0  0  0  0
    0.2005    2.4478   -0.0000 C   0  0  0  0  0  0  0  0  0  0  0  0
    0.0195    0.7253   -0.0000 C   0  0  0  0  0  0  0  0  0  0  0  0
   -2.6020    4.4840   -0.0000 O   0  0  0  0  0  0  0  0  0  0  0  0
    0.6072    1.5343   -0.0000 C   0  0  0  0  0  0  0  0  0  0  0  0
  1  2  1  0  0  0  0
  2  3  2  0  0  0  0
  2  4  1  0  0  0  0
  3  5  1  0  0  0  0
  4  6  2  0  0  0  0
  5  7  2  0  0  0  0
  5  8  1  0  0  0  0
  8  9  1  0  0  0  0
  8 10  1  0  0  0  0
  9 11  1  0  0  0  0
  9 12  1  0  0  0  0
 10 13  1  0  0  0  0
 11 14  2  0  0  0  0
 12 15  2  0  0  0  0
 12 16  1  0  0  0  0
 13 17  2  0  0  0  0
 13 18  1  0  0  0  0
 14 19  1  0  0  0  0
 17 20  1  0  0  0  0
 18 21  2  0  0  0  0
 19 22  1  0  0  0  0
 19 23  2  0  0  0  0
 20 24  2  0  0  0  0
 22 25  2  0  0  0  0
 22 26  1  0  0  0  0
 23 27  1  0  0  0  0
 24 28  1  0  0  0  0
 26 29  1  0  0  0  0
 27 30  2  0  0  0  0
 28 31  1  0  0  0  0
 29 32  2  0  0  0  0
 30 33  1  0  0  0  0
 31 34  1  0  0  0  0
 31 35  1  0  0  0  0
 32 36  1  0  0  0  0
 34 37  1  0  0  0  0
 34 38  1  0  0  0  0
 35 39  2  0  0  0  0
 35 40  1  0  0  0  0
 37 41  2  0  0  0  0
 38 42  2  0  0  0  0
 38 43  1  0  0  0  0
 39 44  1  0  0  0  0
 40 45  2  0  0  0  0
 41 46  1  0  0  0  0
 44 47  1  0  0  0  0
 44 48  2  0  0  0  0
 46 49  1  0  0  0  0
 46 50  2  0  0  0  0
 49 51  2  0  0  0  0
 49 52  1  0  0  0  0
 50 53  1  0  0  0  0
 51 54  1  0  0  0  0
 51 55  1  0  0  0  0
 52 56  2  0  0  0  0
 53 57  2  0  0  0  0
 55 58  2  0  0  0  0
  6  7  1  0  0  0  0
 14 16  1  0  0  0  0
 21 24  1  0  0  0  0
 27 29  1  0  0  0  0
 33 36  2  0  0  0  0
 41 43  1  0  0  0  0
 45 48  1  0  0  0  0
 53 54  1  0  0  0  0
 56 58  1  0  0  0  0
M  END
>  <S/N>
533

>  <Compound ID>
C_550

>  <PubChem CID>
155547925

>  <Isomeric SMILES>
C1=CC=C2C(=C1)C=C(C(=O)O2)C3=NN(C(=S)O3)C(C4=CC(=CC=C4)Cl)NC5=CC=C(C=C5)NC(C6=CC(=CC=C6)Cl)N7C(=S)OC(=N7)C8=CC(=O)OC9=CC=CC=C98

>  <IC50 (�M)>
0.07

>  <pIC50>
7.15

$$$$
C_551
Actelion Java MolfileCreator 1.0

 54 60  0  0  0  0  0  0  0  0999 V2000
   10.3923    2.2500   -0.0000 Br  0  0  0  0  0  0  0  0  0  0  0  0
    9.0933    1.5000   -0.0000 C   0  0  0  0  0  0  0  0  0  0  0  0
    7.7942    2.2500   -0.0000 C   0  0  0  0  0  0  0  0  0  0  0  0
    9.0933   -0.0000   -0.0000 C   0  0  0  0  0  0  0  0  0  0  0  0
    6.4952    1.5000   -0.0000 C   0  0  0  0  0  0  0  0  0  0  0  0
    7.7942   -0.7500   -0.0000 C   0  0  0  0  0  0  0  0  0  0  0  0
    6.4952   -0.0000   -0.0000 C   0  0  0  0  0  0  0  0  0  0  0  0
    5.1962   -0.7500   -0.0000 S   0  0  0  0  0  0  0  0  0  0  0  0
    4.4462   -2.0490   -0.0000 O   0  0  0  0  0  0  0  0  0  0  0  0
    5.9462   -2.0490   -0.0000 O   0  0  0  0  0  0  0  0  0  0  0  0
    3.8971   -0.0000   -0.0000 N   0  0  0  0  0  0  0  0  0  0  0  0
    2.5981   -0.7500   -0.0000 N   0  0  0  0  0  0  0  0  0  0  0  0
    1.2990   -0.0000   -0.0000 C   0  0  0  0  0  0  0  0  0  0  0  0
    1.2990    1.5000   -0.0000 O   0  0  0  0  0  0  0  0  0  0  0  0
    0.0000   -0.7500   -0.0000 C   0  0  0  0  0  0  0  0  0  0  0  0
   -0.0000   -2.2500   -0.0000 C   0  0  0  0  0  0  0  0  0  0  0  0
   -1.2990    0.0000   -0.0000 C   0  0  0  0  0  0  0  0  0  0  0  0
   -1.2990   -3.0000   -0.0000 C   0  0  0  0  0  0  0  0  0  0  0  0
   -2.5981   -0.7500   -0.0000 C   0  0  0  0  0  0  0  0  0  0  0  0
   -2.5981   -2.2500   -0.0000 C   0  0  0  0  0  0  0  0  0  0  0  0
   -1.6109   -4.4672   -0.0000 C   0  0  0  0  0  0  0  0  0  0  0  0
   -3.7128   -3.2537   -0.0000 N   0  0  0  0  0  0  0  0  0  0  0  0
   -3.1027   -4.6240   -0.0000 C   0  0  0  0  0  0  0  0  0  0  0  0
   -0.6072   -5.5819   -0.0000 C   0  0  0  0  0  0  0  0  0  0  0  0
   -1.0707   -7.0085   -0.0000 C   0  0  0  0  0  0  0  0  0  0  0  0
    0.8600   -5.2701   -0.0000 C   0  0  0  0  0  0  0  0  0  0  0  0
   -2.5380   -7.3204   -0.0000 C   0  0  0  0  0  0  0  0  0  0  0  0
   -0.0670   -8.1233   -0.0000 C   0  0  0  0  0  0  0  0  0  0  0  0
    1.9747   -6.2738   -0.0000 C   0  0  0  0  0  0  0  0  0  0  0  0
    1.4701   -3.8998   -0.0000 C   0  0  0  0  0  0  0  0  0  0  0  0
   -3.0015   -8.7470   -0.0000 C   0  0  0  0  0  0  0  0  0  0  0  0
   -0.5306   -9.5498   -0.0000 C   0  0  0  0  0  0  0  0  0  0  0  0
    3.2738   -5.5238   -0.0000 C   0  0  0  0  0  0  0  0  0  0  0  0
    1.9747   -7.7738   -0.0000 C   0  0  0  0  0  0  0  0  0  0  0  0
    2.9619   -4.0566   -0.0000 N   0  0  0  0  0  0  0  0  0  0  0  0
   -1.9978   -9.8617   -0.0000 C   0  0  0  0  0  0  0  0  0  0  0  0
    4.5728   -6.2738   -0.0000 C   0  0  0  0  0  0  0  0  0  0  0  0
    3.2738   -8.5238   -0.0000 C   0  0  0  0  0  0  0  0  0  0  0  0
   -2.4613  -11.2883   -0.0000 C   0  0  0  0  0  0  0  0  0  0  0  0
    4.5728   -7.7738   -0.0000 C   0  0  0  0  0  0  0  0  0  0  0  0
    3.2738  -10.0238   -0.0000 C   0  0  0  0  0  0  0  0  0  0  0  0
    4.5728  -10.7738   -0.0000 O   0  0  0  0  0  0  0  0  0  0  0  0
    1.9747  -10.7738   -0.0000 N   0  0  0  0  0  0  0  0  0  0  0  0
    1.9747  -12.2738   -0.0000 N   0  0  0  0  0  0  0  0  0  0  0  0
    0.6757  -13.0238   -0.0000 S   0  0  0  0  0  0  0  0  0  0  0  0
   -0.0743  -11.7248   -0.0000 O   0  0  0  0  0  0  0  0  0  0  0  0
   -0.8243  -13.0238   -0.0000 O   0  0  0  0  0  0  0  0  0  0  0  0
    0.6757  -14.5238   -0.0000 C   0  0  0  0  0  0  0  0  0  0  0  0
   -0.6233  -15.2738   -0.0000 C   0  0  0  0  0  0  0  0  0  0  0  0
    1.9747  -15.2738   -0.0000 C   0  0  0  0  0  0  0  0  0  0  0  0
   -0.6233  -16.7738   -0.0000 C   0  0  0  0  0  0  0  0  0  0  0  0
    1.9747  -16.7738   -0.0000 C   0  0  0  0  0  0  0  0  0  0  0  0
    0.6757  -17.5238   -0.0000 C   0  0  0  0  0  0  0  0  0  0  0  0
    0.6757  -19.0238   -0.0000 Br  0  0  0  0  0  0  0  0  0  0  0  0
  1  2  1  0  0  0  0
  2  3  2  0  0  0  0
  2  4  1  0  0  0  0
  3  5  1  0  0  0  0
  4  6  2  0  0  0  0
  5  7  2  0  0  0  0
  7  8  1  0  0  0  0
  8  9  2  0  0  0  0
  8 10  2  0  0  0  0
  8 11  1  0  0  0  0
 11 12  1  0  0  0  0
 12 13  1  0  0  0  0
 13 14  2  0  0  0  0
 13 15  1  0  0  0  0
 15 16  2  0  0  0  0
 15 17  1  0  0  0  0
 16 18  1  0  0  0  0
 17 19  2  0  0  0  0
 18 20  2  0  0  0  0
 18 21  1  0  0  0  0
 20 22  1  0  0  0  0
 21 23  2  0  0  0  0
 21 24  1  0  0  0  0
 24 25  1  0  0  0  0
 24 26  1  0  0  0  0
 25 27  2  0  0  0  0
 25 28  1  0  0  0  0
 26 29  1  0  0  0  0
 26 30  2  0  0  0  0
 27 31  1  0  0  0  0
 28 32  2  0  0  0  0
 29 33  2  0  0  0  0
 29 34  1  0  0  0  0
 30 35  1  0  0  0  0
 31 36  2  0  0  0  0
 33 37  1  0  0  0  0
 34 38  2  0  0  0  0
 36 39  1  0  0  0  0
 37 40  2  0  0  0  0
 38 41  1  0  0  0  0
 41 42  2  0  0  0  0
 41 43  1  0  0  0  0
 43 44  1  0  0  0  0
 44 45  1  0  0  0  0
 45 46  2  0  0  0  0
 45 47  2  0  0  0  0
 45 48  1  0  0  0  0
 48 49  2  0  0  0  0
 48 50  1  0  0  0  0
 49 51  1  0  0  0  0
 50 52  2  0  0  0  0
 51 53  2  0  0  0  0
 53 54  1  0  0  0  0
  6  7  1  0  0  0  0
 19 20  1  0  0  0  0
 22 23  1  0  0  0  0
 32 36  1  0  0  0  0
 33 35  1  0  0  0  0
 38 40  1  0  0  0  0
 52 53  1  0  0  0  0
M  END
>  <S/N>
534

>  <Compound ID>
C_551

>  <PubChem CID>
155548029

>  <Isomeric SMILES>
CC1=CC=C(C=C1)C(C2=CNC3=C2C=C(C=C3)C(=O)NNS(=O)(=O)C4=CC=C(C=C4)Br)C5=CNC6=C5C=C(C=C6)C(=O)NNS(=O)(=O)C7=CC=C(C=C7)Br

>  <IC50 (�M)>
0.1

>  <pIC50>
7

$$$$
C_552
Actelion Java MolfileCreator 1.0

 44 49  0  0  1  0  0  0  0  0999 V2000
    3.8971   -4.5000   -0.0000 O   0  0  0  0  0  0  0  0  0  0  0  0
    5.1962   -5.2500   -0.0000 C   0  0  0  0  0  0  0  0  0  0  0  0
    6.4952   -4.5000   -0.0000 O   0  0  0  0  0  0  0  0  0  0  0  0
    5.1962   -6.7500   -0.0000 C   0  0  0  0  0  0  0  0  0  0  0  0
    7.7942   -5.2500   -0.0000 C   0  0  0  0  0  0  0  0  0  0  0  0
    6.4952   -7.5000   -0.0000 C   0  0  0  0  0  0  0  0  0  0  0  0
    9.0933   -4.5000   -0.0000 C   0  0  0  0  0  0  0  0  0  0  0  0
    7.7942   -6.7500   -0.0000 C   0  0  0  0  0  0  0  0  0  0  0  0
    9.0933   -3.0000   -0.0000 O   0  0  0  0  0  0  0  0  0  0  0  0
   10.3923   -5.2500   -0.0000 C   0  0  0  0  0  0  0  0  0  0  0  0
    9.0933   -7.5000   -0.0000 C   0  0  0  0  0  0  0  0  0  0  0  0
    7.7942   -2.2500   -0.0000 C   0  0  0  0  0  0  0  0  0  0  0  0
   11.8189   -4.7865   -0.0000 O   0  0  0  0  0  0  0  0  0  0  0  0
   10.3923   -6.7500   -0.0000 C   0  0  0  0  0  0  0  0  0  0  0  0
    9.0933   -9.0000   -0.0000 O   0  0  0  0  0  0  0  0  0  0  0  0
    7.7942   -0.7500   -0.0000 C   0  0  0  0  0  0  0  0  0  0  0  0
   12.7006   -6.0000   -0.0000 C   0  0  0  0  0  0  0  0  0  0  0  0
   11.8189   -7.2135   -0.0000 C   0  0  0  0  0  0  0  0  0  0  0  0
    7.7942   -9.7500   -0.0000 C   0  0  0  0  0  0  0  0  0  0  0  0
    6.4952   -0.0000   -0.0000 O   0  0  0  0  0  0  0  0  0  0  0  0
    9.0933    0.0000   -0.0000 C   0  0  0  0  0  0  0  0  0  0  0  0
    5.1962   -0.7500   -0.0000 C   0  0  0  0  0  0  0  0  0  0  0  0
    9.0933    1.5000   -0.0000 C   0  0  0  0  0  0  0  0  0  0  0  0
   10.3923   -0.7500   -0.0000 C   0  0  0  0  0  0  0  0  0  0  0  0
    3.8971   -0.0000   -0.0000 C   0  0  0  0  0  0  0  0  0  0  0  0
    4.4462   -2.0490   -0.0000 C   0  0  0  0  0  0  0  0  0  0  0  0
    5.9462   -2.0490   -0.0000 C   0  0  0  0  0  0  0  0  0  0  0  0
    2.5981   -0.7500   -0.0000 O   0  0  0  0  0  0  0  0  0  0  0  0
    3.8971    1.5000   -0.0000 C   0  0  0  0  0  0  0  0  0  0  0  0
    2.5981    2.2500   -0.0000 O   0  0  0  0  0  0  0  0  0  0  0  0
    2.5981    3.7500   -0.0000 C   0  0  0  0  0  0  0  0  0  0  0  0
    1.2990    4.5000   -0.0000 C   0  0  0  0  0  0  0  0  0  0  0  0
    3.8971    4.5000   -0.0000 C   0  0  0  0  0  0  0  0  0  0  0  0
    1.2990    6.0000   -0.0000 C   0  0  0  0  0  0  0  0  0  0  0  0
    0.0000    3.7500   -0.0000 C   0  0  0  0  0  0  0  0  0  0  0  0
    3.8971    6.0000   -0.0000 C   0  0  0  0  0  0  0  0  0  0  0  0
    5.3237    4.0365   -0.0000 C   0  0  0  0  0  0  0  0  0  0  0  0
   -0.0000    6.7500   -0.0000 O   0  0  0  0  0  0  0  0  0  0  0  0
    2.5981    6.7500   -0.0000 C   0  0  0  0  0  0  0  0  0  0  0  0
   -1.2990    4.5000   -0.0000 C   0  0  0  0  0  0  0  0  0  0  0  0
    5.3237    6.4635   -0.0000 O   0  0  0  0  0  0  0  0  0  0  0  0
    6.2054    5.2500   -0.0000 C   0  0  0  0  0  0  0  0  0  0  0  0
   -1.2990    6.0000   -0.0000 C   0  0  0  0  0  0  0  0  0  0  0  0
   -2.5981    6.7500   -0.0000 O   0  0  0  0  0  0  0  0  0  0  0  0
  1  2  2  0  0  0  0
  2  3  1  0  0  0  0
  2  4  1  0  0  0  0
  3  5  1  0  0  0  0
  4  6  2  0  0  0  0
  5  7  2  0  0  0  0
  5  8  1  0  0  0  0
  7  9  1  0  0  0  0
  7 10  1  0  0  0  0
  8 11  2  0  0  0  0
  9 12  1  0  0  0  0
 10 13  1  0  0  0  0
 10 14  2  0  0  0  0
 11 15  1  0  0  0  0
 12 16  1  0  0  0  0
 13 17  1  0  0  0  0
 14 18  1  0  0  0  0
 15 19  1  0  0  0  0
 16 20  1  0  0  0  0
 16 21  1  0  0  0  0
 20 22  1  0  0  0  0
 21 23  2  0  0  0  0
 21 24  1  0  0  0  0
 22 25  1  0  0  0  0
 22 26  1  0  0  0  0
 22 27  1  0  0  0  0
 25 28  1  6  0  0  0
 25 29  1  0  0  0  0
 29 30  1  0  0  0  0
 30 31  1  0  0  0  0
 31 32  2  0  0  0  0
 31 33  1  0  0  0  0
 32 34  1  0  0  0  0
 32 35  1  0  0  0  0
 33 36  2  0  0  0  0
 33 37  1  0  0  0  0
 34 38  1  0  0  0  0
 34 39  2  0  0  0  0
 35 40  2  0  0  0  0
 36 41  1  0  0  0  0
 37 42  2  0  0  0  0
 38 43  1  0  0  0  0
 43 44  2  0  0  0  0
  6  8  1  0  0  0  0
 11 14  1  0  0  0  0
 17 18  2  0  0  0  0
 36 39  1  0  0  0  0
 40 43  1  0  0  0  0
 41 42  1  0  0  0  0
M  END
>  <S/N>
535

>  <Compound ID>
C_552

>  <PubChem CID>
155548091

>  <Isomeric SMILES>
CC(=C)C(COC1=C2C(=C(C3=C1OC(=O)C=C3)OC)C=CO2)OC(C)(C)[C@@H](COC4=C5C=CC(=O)OC5=CC6=C4C=CO6)O

>  <IC50 (�M)>
8.8

>  <pIC50>
5.06

$$$$
C_553
Actelion Java MolfileCreator 1.0

 65 74  0  0  0  0  0  0  0  0999 V2000
    1.7321   -4.5000   -0.0000 Br  0  0  0  0  0  0  0  0  0  0  0  0
    1.7321   -3.5000   -0.0000 C   0  0  0  0  0  0  0  0  0  0  0  0
    0.8660   -3.0000   -0.0000 C   0  0  0  0  0  0  0  0  0  0  0  0
    2.5981   -3.0000   -0.0000 C   0  0  0  0  0  0  0  0  0  0  0  0
    0.8660   -2.0000   -0.0000 C   0  0  0  0  0  0  0  0  0  0  0  0
    2.5981   -2.0000   -0.0000 C   0  0  0  0  0  0  0  0  0  0  0  0
    1.7321   -1.5000   -0.0000 C   0  0  0  0  0  0  0  0  0  0  0  0
    1.7321   -0.5000   -0.0000 C   0  0  0  0  0  0  0  0  0  0  0  0
    2.5981   -0.0000   -0.0000 N   0  0  0  0  0  0  0  0  0  0  0  0
    0.8660   -0.0000   -0.0000 N   0  0  0  0  0  0  0  0  0  0  0  0
    3.5116   -0.4067   -0.0000 N   0  0  0  0  0  0  0  0  0  0  0  0
    2.7026    0.9945   -0.0000 C   0  0  0  0  0  0  0  0  0  0  0  0
    0.0000   -0.5000   -0.0000 C   0  0  0  0  0  0  0  0  0  0  0  0
    4.1808    0.3364   -0.0000 C   0  0  0  0  0  0  0  0  0  0  0  0
    1.9595    1.6637   -0.0000 S   0  0  0  0  0  0  0  0  0  0  0  0
    3.6808    1.2024   -0.0000 O   0  0  0  0  0  0  0  0  0  0  0  0
   -0.8660    0.0000   -0.0000 C   0  0  0  0  0  0  0  0  0  0  0  0
   -0.0000   -1.5000   -0.0000 C   0  0  0  0  0  0  0  0  0  0  0  0
    5.1753    0.2319   -0.0000 C   0  0  0  0  0  0  0  0  0  0  0  0
   -1.7321   -0.5000   -0.0000 C   0  0  0  0  0  0  0  0  0  0  0  0
   -0.8660   -2.0000   -0.0000 C   0  0  0  0  0  0  0  0  0  0  0  0
    5.5820   -0.6817   -0.0000 C   0  0  0  0  0  0  0  0  0  0  0  0
    5.7631    1.0409   -0.0000 C   0  0  0  0  0  0  0  0  0  0  0  0
   -1.7321   -1.5000   -0.0000 C   0  0  0  0  0  0  0  0  0  0  0  0
    4.9942   -1.4907   -0.0000 O   0  0  0  0  0  0  0  0  0  0  0  0
    6.5765   -0.7862   -0.0000 O   0  0  0  0  0  0  0  0  0  0  0  0
    6.7576    0.9364   -0.0000 C   0  0  0  0  0  0  0  0  0  0  0  0
   -2.5981   -2.0000   -0.0000 O   0  0  0  0  0  0  0  0  0  0  0  0
    7.1643    0.0228   -0.0000 C   0  0  0  0  0  0  0  0  0  0  0  0
    7.3454    1.7454   -0.0000 C   0  0  0  0  0  0  0  0  0  0  0  0
   -2.5981   -3.0000   -0.0000 C   0  0  0  0  0  0  0  0  0  0  0  0
    8.1588   -0.0817   -0.0000 C   0  0  0  0  0  0  0  0  0  0  0  0
    8.3399    1.6409   -0.0000 C   0  0  0  0  0  0  0  0  0  0  0  0
   -3.4641   -3.5000   -0.0000 C   0  0  0  0  0  0  0  0  0  0  0  0
   -1.7321   -3.5000   -0.0000 C   0  0  0  0  0  0  0  0  0  0  0  0
    8.7466    0.7273   -0.0000 C   0  0  0  0  0  0  0  0  0  0  0  0
   -3.4641   -4.5000   -0.0000 C   0  0  0  0  0  0  0  0  0  0  0  0
   -1.7321   -4.5000   -0.0000 C   0  0  0  0  0  0  0  0  0  0  0  0
   -2.5981   -5.0000   -0.0000 C   0  0  0  0  0  0  0  0  0  0  0  0
   -2.5981   -6.0000   -0.0000 N   0  0  0  0  0  0  0  0  0  0  0  0
   -3.4641   -6.5000   -0.0000 C   0  0  0  0  0  0  0  0  0  0  0  0
   -4.3301   -6.0000   -0.0000 N   0  0  0  0  0  0  0  0  0  0  0  0
   -3.4641   -7.5000   -0.0000 C   0  0  0  0  0  0  0  0  0  0  0  0
   -4.4347   -5.0055   -0.0000 N   0  0  0  0  0  0  0  0  0  0  0  0
   -5.2437   -6.4067   -0.0000 C   0  0  0  0  0  0  0  0  0  0  0  0
   -4.3301   -8.0000   -0.0000 C   0  0  0  0  0  0  0  0  0  0  0  0
   -2.5981   -8.0000   -0.0000 C   0  0  0  0  0  0  0  0  0  0  0  0
   -5.4128   -4.7976   -0.0000 C   0  0  0  0  0  0  0  0  0  0  0  0
   -5.4516   -7.3849   -0.0000 S   0  0  0  0  0  0  0  0  0  0  0  0
   -5.9128   -5.6636   -0.0000 O   0  0  0  0  0  0  0  0  0  0  0  0
   -4.3301   -9.0000   -0.0000 C   0  0  0  0  0  0  0  0  0  0  0  0
   -2.5981   -9.0000   -0.0000 C   0  0  0  0  0  0  0  0  0  0  0  0
   -5.8195   -3.8840   -0.0000 C   0  0  0  0  0  0  0  0  0  0  0  0
   -3.4641   -9.5000   -0.0000 C   0  0  0  0  0  0  0  0  0  0  0  0
   -5.2318   -3.0750   -0.0000 C   0  0  0  0  0  0  0  0  0  0  0  0
   -6.8141   -3.7795   -0.0000 C   0  0  0  0  0  0  0  0  0  0  0  0
   -3.4641  -10.5000   -0.0000 Br  0  0  0  0  0  0  0  0  0  0  0  0
   -4.2372   -3.1795   -0.0000 O   0  0  0  0  0  0  0  0  0  0  0  0
   -5.6385   -2.1615   -0.0000 O   0  0  0  0  0  0  0  0  0  0  0  0
   -7.2208   -2.8659   -0.0000 C   0  0  0  0  0  0  0  0  0  0  0  0
   -6.6330   -2.0569   -0.0000 C   0  0  0  0  0  0  0  0  0  0  0  0
   -8.2153   -2.7614   -0.0000 C   0  0  0  0  0  0  0  0  0  0  0  0
   -7.0397   -1.1434   -0.0000 C   0  0  0  0  0  0  0  0  0  0  0  0
   -8.6221   -1.8479   -0.0000 C   0  0  0  0  0  0  0  0  0  0  0  0
   -8.0343   -1.0389   -0.0000 C   0  0  0  0  0  0  0  0  0  0  0  0
  1  2  1  0  0  0  0
  2  3  2  0  0  0  0
  2  4  1  0  0  0  0
  3  5  1  0  0  0  0
  4  6  2  0  0  0  0
  5  7  2  0  0  0  0
  7  8  1  0  0  0  0
  8  9  1  0  0  0  0
  8 10  1  0  0  0  0
  9 11  1  0  0  0  0
  9 12  1  0  0  0  0
 10 13  1  0  0  0  0
 11 14  2  0  0  0  0
 12 15  2  0  0  0  0
 12 16  1  0  0  0  0
 13 17  2  0  0  0  0
 13 18  1  0  0  0  0
 14 19  1  0  0  0  0
 17 20  1  0  0  0  0
 18 21  2  0  0  0  0
 19 22  1  0  0  0  0
 19 23  2  0  0  0  0
 20 24  2  0  0  0  0
 22 25  2  0  0  0  0
 22 26  1  0  0  0  0
 23 27  1  0  0  0  0
 24 28  1  0  0  0  0
 26 29  1  0  0  0  0
 27 30  2  0  0  0  0
 28 31  1  0  0  0  0
 29 32  2  0  0  0  0
 30 33  1  0  0  0  0
 31 34  2  0  0  0  0
 31 35  1  0  0  0  0
 32 36  1  0  0  0  0
 34 37  1  0  0  0  0
 35 38  2  0  0  0  0
 37 39  2  0  0  0  0
 39 40  1  0  0  0  0
 40 41  1  0  0  0  0
 41 42  1  0  0  0  0
 41 43  1  0  0  0  0
 42 44  1  0  0  0  0
 42 45  1  0  0  0  0
 43 46  2  0  0  0  0
 43 47  1  0  0  0  0
 44 48  2  0  0  0  0
 45 49  2  0  0  0  0
 45 50  1  0  0  0  0
 46 51  1  0  0  0  0
 47 52  2  0  0  0  0
 48 53  1  0  0  0  0
 51 54  2  0  0  0  0
 53 55  1  0  0  0  0
 53 56  2  0  0  0  0
 54 57  1  0  0  0  0
 55 58  2  0  0  0  0
 55 59  1  0  0  0  0
 56 60  1  0  0  0  0
 59 61  1  0  0  0  0
 60 62  2  0  0  0  0
 61 63  2  0  0  0  0
 62 64  1  0  0  0  0
 63 65  1  0  0  0  0
  6  7  1  0  0  0  0
 14 16  1  0  0  0  0
 21 24  1  0  0  0  0
 27 29  1  0  0  0  0
 33 36  2  0  0  0  0
 38 39  1  0  0  0  0
 48 50  1  0  0  0  0
 52 54  1  0  0  0  0
 60 61  1  0  0  0  0
 64 65  2  0  0  0  0
M  END
>  <S/N>
536

>  <Compound ID>
C_553

>  <PubChem CID>
155548830

>  <Isomeric SMILES>
C1=CC=C2C(=C1)C=C(C(=O)O2)C3=NN(C(=S)O3)C(C4=CC=C(C=C4)Br)NC5=CC=C(C=C5)OC6=CC=C(C=C6)NC(C7=CC=C(C=C7)Br)N8C(=S)OC(=N8)C9=CC1=CC=CC=C1OC9=O

>  <IC50 (�M)>
0.07

>  <pIC50>
7.15

$$$$
C_554
Actelion Java MolfileCreator 1.0

 58 66  0  0  0  0  0  0  0  0999 V2000
    3.7195   -1.3849   -0.0000 S   0  0  0  0  0  0  0  0  0  0  0  0
    3.5116   -0.4067   -0.0000 C   0  0  0  0  0  0  0  0  0  0  0  0
    4.1808    0.3364   -0.0000 O   0  0  0  0  0  0  0  0  0  0  0  0
    2.5981   -0.0000   -0.0000 N   0  0  0  0  0  0  0  0  0  0  0  0
    3.6808    1.2024   -0.0000 C   0  0  0  0  0  0  0  0  0  0  0  0
    2.7026    0.9945   -0.0000 N   0  0  0  0  0  0  0  0  0  0  0  0
    1.7321   -0.5000   -0.0000 C   0  0  0  0  0  0  0  0  0  0  0  0
    4.0875    2.1160   -0.0000 C   0  0  0  0  0  0  0  0  0  0  0  0
    0.8660   -0.0000   -0.0000 N   0  0  0  0  0  0  0  0  0  0  0  0
    1.7321   -1.5000   -0.0000 C   0  0  0  0  0  0  0  0  0  0  0  0
    5.0820    2.2205   -0.0000 C   0  0  0  0  0  0  0  0  0  0  0  0
    3.4997    2.9250   -0.0000 C   0  0  0  0  0  0  0  0  0  0  0  0
    0.0000   -0.5000   -0.0000 C   0  0  0  0  0  0  0  0  0  0  0  0
    0.8660   -2.0000   -0.0000 C   0  0  0  0  0  0  0  0  0  0  0  0
    2.5981   -2.0000   -0.0000 C   0  0  0  0  0  0  0  0  0  0  0  0
    5.6698    1.4115   -0.0000 O   0  0  0  0  0  0  0  0  0  0  0  0
    5.4887    3.1341   -0.0000 O   0  0  0  0  0  0  0  0  0  0  0  0
    3.9064    3.8385   -0.0000 C   0  0  0  0  0  0  0  0  0  0  0  0
   -0.8660    0.0000   -0.0000 C   0  0  0  0  0  0  0  0  0  0  0  0
   -0.0000   -1.5000   -0.0000 C   0  0  0  0  0  0  0  0  0  0  0  0
    0.8660   -3.0000   -0.0000 C   0  0  0  0  0  0  0  0  0  0  0  0
    2.5981   -3.0000   -0.0000 C   0  0  0  0  0  0  0  0  0  0  0  0
    4.9010    3.9431   -0.0000 C   0  0  0  0  0  0  0  0  0  0  0  0
    3.3187    4.6476   -0.0000 C   0  0  0  0  0  0  0  0  0  0  0  0
   -1.7321   -0.5000   -0.0000 C   0  0  0  0  0  0  0  0  0  0  0  0
   -0.8660   -2.0000   -0.0000 C   0  0  0  0  0  0  0  0  0  0  0  0
    1.7321   -3.5000   -0.0000 C   0  0  0  0  0  0  0  0  0  0  0  0
    5.3077    4.8566   -0.0000 C   0  0  0  0  0  0  0  0  0  0  0  0
    3.7254    5.5611   -0.0000 C   0  0  0  0  0  0  0  0  0  0  0  0
   -1.7321   -1.5000   -0.0000 C   0  0  0  0  0  0  0  0  0  0  0  0
    1.7321   -4.5000   -0.0000 F   0  0  0  0  0  0  0  0  0  0  0  0
    4.7199    5.6656   -0.0000 C   0  0  0  0  0  0  0  0  0  0  0  0
   -2.5981   -2.0000   -0.0000 N   0  0  0  0  0  0  0  0  0  0  0  0
   -3.4641   -1.5000   -0.0000 C   0  0  0  0  0  0  0  0  0  0  0  0
   -3.4641   -0.5000   -0.0000 N   0  0  0  0  0  0  0  0  0  0  0  0
   -4.3301   -2.0000   -0.0000 C   0  0  0  0  0  0  0  0  0  0  0  0
   -2.6551    0.0878   -0.0000 N   0  0  0  0  0  0  0  0  0  0  0  0
   -4.2731    0.0878   -0.0000 C   0  0  0  0  0  0  0  0  0  0  0  0
   -5.1962   -1.5000   -0.0000 C   0  0  0  0  0  0  0  0  0  0  0  0
   -4.3301   -3.0000   -0.0000 C   0  0  0  0  0  0  0  0  0  0  0  0
   -2.9641    1.0388   -0.0000 C   0  0  0  0  0  0  0  0  0  0  0  0
   -5.2242   -0.2212   -0.0000 S   0  0  0  0  0  0  0  0  0  0  0  0
   -3.9641    1.0388   -0.0000 O   0  0  0  0  0  0  0  0  0  0  0  0
   -6.0622   -2.0000   -0.0000 C   0  0  0  0  0  0  0  0  0  0  0  0
   -5.1962   -3.5000   -0.0000 C   0  0  0  0  0  0  0  0  0  0  0  0
   -2.3763    1.8479   -0.0000 C   0  0  0  0  0  0  0  0  0  0  0  0
   -6.0622   -3.0000   -0.0000 C   0  0  0  0  0  0  0  0  0  0  0  0
   -1.3818    1.7433   -0.0000 C   0  0  0  0  0  0  0  0  0  0  0  0
   -2.7831    2.7614   -0.0000 C   0  0  0  0  0  0  0  0  0  0  0  0
   -6.9282   -3.5000   -0.0000 F   0  0  0  0  0  0  0  0  0  0  0  0
   -0.7940    2.5523   -0.0000 C   0  0  0  0  0  0  0  0  0  0  0  0
   -0.9751    0.8298   -0.0000 C   0  0  0  0  0  0  0  0  0  0  0  0
   -2.1953    3.5704   -0.0000 C   0  0  0  0  0  0  0  0  0  0  0  0
   -1.2007    3.4659   -0.0000 O   0  0  0  0  0  0  0  0  0  0  0  0
    0.2005    2.4478   -0.0000 C   0  0  0  0  0  0  0  0  0  0  0  0
    0.0195    0.7253   -0.0000 C   0  0  0  0  0  0  0  0  0  0  0  0
   -2.6020    4.4840   -0.0000 O   0  0  0  0  0  0  0  0  0  0  0  0
    0.6072    1.5343   -0.0000 C   0  0  0  0  0  0  0  0  0  0  0  0
  1  2  2  0  0  0  0
  2  3  1  0  0  0  0
  2  4  1  0  0  0  0
  3  5  1  0  0  0  0
  4  6  1  0  0  0  0
  4  7  1  0  0  0  0
  5  8  1  0  0  0  0
  7  9  1  0  0  0  0
  7 10  1  0  0  0  0
  8 11  1  0  0  0  0
  8 12  2  0  0  0  0
  9 13  1  0  0  0  0
 10 14  2  0  0  0  0
 10 15  1  0  0  0  0
 11 16  2  0  0  0  0
 11 17  1  0  0  0  0
 12 18  1  0  0  0  0
 13 19  2  0  0  0  0
 13 20  1  0  0  0  0
 14 21  1  0  0  0  0
 15 22  2  0  0  0  0
 17 23  1  0  0  0  0
 18 24  1  0  0  0  0
 19 25  1  0  0  0  0
 20 26  2  0  0  0  0
 21 27  2  0  0  0  0
 23 28  1  0  0  0  0
 24 29  2  0  0  0  0
 25 30  2  0  0  0  0
 27 31  1  0  0  0  0
 28 32  2  0  0  0  0
 30 33  1  0  0  0  0
 33 34  1  0  0  0  0
 34 35  1  0  0  0  0
 34 36  1  0  0  0  0
 35 37  1  0  0  0  0
 35 38  1  0  0  0  0
 36 39  2  0  0  0  0
 36 40  1  0  0  0  0
 37 41  2  0  0  0  0
 38 42  2  0  0  0  0
 38 43  1  0  0  0  0
 39 44  1  0  0  0  0
 40 45  2  0  0  0  0
 41 46  1  0  0  0  0
 44 47  2  0  0  0  0
 46 48  1  0  0  0  0
 46 49  2  0  0  0  0
 47 50  1  0  0  0  0
 48 51  2  0  0  0  0
 48 52  1  0  0  0  0
 49 53  1  0  0  0  0
 51 54  1  0  0  0  0
 51 55  1  0  0  0  0
 52 56  2  0  0  0  0
 53 57  2  0  0  0  0
 55 58  2  0  0  0  0
  5  6  2  0  0  0  0
 18 23  2  0  0  0  0
 22 27  1  0  0  0  0
 26 30  1  0  0  0  0
 29 32  1  0  0  0  0
 41 43  1  0  0  0  0
 45 47  1  0  0  0  0
 53 54  1  0  0  0  0
 56 58  1  0  0  0  0
M  END
>  <S/N>
537

>  <Compound ID>
C_554

>  <PubChem CID>
155549036

>  <Isomeric SMILES>
C1=CC=C2C(=C1)C=C(C(=O)O2)C3=NN(C(=S)O3)C(C4=CC=C(C=C4)F)NC5=CC=C(C=C5)NC(C6=CC=C(C=C6)F)N7C(=S)OC(=N7)C8=CC(=O)OC9=CC=CC=C98

>  <IC50 (�M)>
0.07

>  <pIC50>
7.15

$$$$
C_555
Actelion Java MolfileCreator 1.0

 69 78  0  0  0  0  0  0  0  0999 V2000
    3.7195   -1.3849   -0.0000 S   0  0  0  0  0  0  0  0  0  0  0  0
    3.5116   -0.4067   -0.0000 C   0  0  0  0  0  0  0  0  0  0  0  0
    4.1808    0.3364   -0.0000 O   0  0  0  0  0  0  0  0  0  0  0  0
    2.5981   -0.0000   -0.0000 N   0  0  0  0  0  0  0  0  0  0  0  0
    3.6808    1.2024   -0.0000 C   0  0  0  0  0  0  0  0  0  0  0  0
    2.7026    0.9945   -0.0000 N   0  0  0  0  0  0  0  0  0  0  0  0
    1.7321   -0.5000   -0.0000 C   0  0  0  0  0  0  0  0  0  0  0  0
    4.0875    2.1160   -0.0000 C   0  0  0  0  0  0  0  0  0  0  0  0
    0.8660   -0.0000   -0.0000 N   0  0  0  0  0  0  0  0  0  0  0  0
    1.7321   -1.5000   -0.0000 C   0  0  0  0  0  0  0  0  0  0  0  0
    5.0820    2.2205   -0.0000 C   0  0  0  0  0  0  0  0  0  0  0  0
    3.4997    2.9250   -0.0000 C   0  0  0  0  0  0  0  0  0  0  0  0
    0.0000   -0.5000   -0.0000 C   0  0  0  0  0  0  0  0  0  0  0  0
    0.8660   -2.0000   -0.0000 C   0  0  0  0  0  0  0  0  0  0  0  0
    2.5981   -2.0000   -0.0000 C   0  0  0  0  0  0  0  0  0  0  0  0
    5.6698    1.4115   -0.0000 O   0  0  0  0  0  0  0  0  0  0  0  0
    5.4887    3.1341   -0.0000 O   0  0  0  0  0  0  0  0  0  0  0  0
    3.9064    3.8385   -0.0000 C   0  0  0  0  0  0  0  0  0  0  0  0
   -0.8660    0.0000   -0.0000 C   0  0  0  0  0  0  0  0  0  0  0  0
   -0.0000   -1.5000   -0.0000 C   0  0  0  0  0  0  0  0  0  0  0  0
    0.8660   -3.0000   -0.0000 C   0  0  0  0  0  0  0  0  0  0  0  0
    2.5981   -3.0000   -0.0000 C   0  0  0  0  0  0  0  0  0  0  0  0
    4.9010    3.9431   -0.0000 C   0  0  0  0  0  0  0  0  0  0  0  0
    3.3187    4.6476   -0.0000 C   0  0  0  0  0  0  0  0  0  0  0  0
   -1.7321   -0.5000   -0.0000 C   0  0  0  0  0  0  0  0  0  0  0  0
   -0.8660   -2.0000   -0.0000 C   0  0  0  0  0  0  0  0  0  0  0  0
    1.7321   -3.5000   -0.0000 C   0  0  0  0  0  0  0  0  0  0  0  0
    5.3077    4.8566   -0.0000 C   0  0  0  0  0  0  0  0  0  0  0  0
    3.7254    5.5611   -0.0000 C   0  0  0  0  0  0  0  0  0  0  0  0
   -1.7321   -1.5000   -0.0000 C   0  0  0  0  0  0  0  0  0  0  0  0
    1.7321   -4.5000   -0.0000 N   0  0  0  0  0  0  0  0  0  0  0  0
    4.7199    5.6656   -0.0000 C   0  0  0  0  0  0  0  0  0  0  0  0
   -2.5981   -2.0000   -0.0000 O   0  0  0  0  0  0  0  0  0  0  0  0
    0.8660   -5.0000   -0.0000 C   0  0  0  0  0  0  0  0  0  0  0  0
    2.5981   -5.0000   -0.0000 C   0  0  0  0  0  0  0  0  0  0  0  0
   -2.5981   -3.0000   -0.0000 C   0  0  0  0  0  0  0  0  0  0  0  0
   -3.4641   -3.5000   -0.0000 C   0  0  0  0  0  0  0  0  0  0  0  0
   -1.7321   -3.5000   -0.0000 C   0  0  0  0  0  0  0  0  0  0  0  0
   -3.4641   -4.5000   -0.0000 C   0  0  0  0  0  0  0  0  0  0  0  0
   -1.7321   -4.5000   -0.0000 C   0  0  0  0  0  0  0  0  0  0  0  0
   -2.5981   -5.0000   -0.0000 C   0  0  0  0  0  0  0  0  0  0  0  0
   -2.5981   -6.0000   -0.0000 N   0  0  0  0  0  0  0  0  0  0  0  0
   -3.4641   -6.5000   -0.0000 C   0  0  0  0  0  0  0  0  0  0  0  0
   -4.3301   -6.0000   -0.0000 N   0  0  0  0  0  0  0  0  0  0  0  0
   -3.4641   -7.5000   -0.0000 C   0  0  0  0  0  0  0  0  0  0  0  0
   -4.4347   -5.0055   -0.0000 N   0  0  0  0  0  0  0  0  0  0  0  0
   -5.2437   -6.4067   -0.0000 C   0  0  0  0  0  0  0  0  0  0  0  0
   -4.3301   -8.0000   -0.0000 C   0  0  0  0  0  0  0  0  0  0  0  0
   -2.5981   -8.0000   -0.0000 C   0  0  0  0  0  0  0  0  0  0  0  0
   -5.4128   -4.7976   -0.0000 C   0  0  0  0  0  0  0  0  0  0  0  0
   -5.4516   -7.3849   -0.0000 S   0  0  0  0  0  0  0  0  0  0  0  0
   -5.9128   -5.6636   -0.0000 O   0  0  0  0  0  0  0  0  0  0  0  0
   -4.3301   -9.0000   -0.0000 C   0  0  0  0  0  0  0  0  0  0  0  0
   -2.5981   -9.0000   -0.0000 C   0  0  0  0  0  0  0  0  0  0  0  0
   -5.8195   -3.8840   -0.0000 C   0  0  0  0  0  0  0  0  0  0  0  0
   -3.4641   -9.5000   -0.0000 C   0  0  0  0  0  0  0  0  0  0  0  0
   -5.2318   -3.0750   -0.0000 C   0  0  0  0  0  0  0  0  0  0  0  0
   -6.8141   -3.7795   -0.0000 C   0  0  0  0  0  0  0  0  0  0  0  0
   -3.4641  -10.5000   -0.0000 N   0  0  0  0  0  0  0  0  0  0  0  0
   -4.2372   -3.1795   -0.0000 O   0  0  0  0  0  0  0  0  0  0  0  0
   -5.6385   -2.1615   -0.0000 O   0  0  0  0  0  0  0  0  0  0  0  0
   -7.2208   -2.8659   -0.0000 C   0  0  0  0  0  0  0  0  0  0  0  0
   -4.3301  -11.0000   -0.0000 C   0  0  0  0  0  0  0  0  0  0  0  0
   -2.5981  -11.0000   -0.0000 C   0  0  0  0  0  0  0  0  0  0  0  0
   -6.6330   -2.0569   -0.0000 C   0  0  0  0  0  0  0  0  0  0  0  0
   -8.2153   -2.7614   -0.0000 C   0  0  0  0  0  0  0  0  0  0  0  0
   -7.0397   -1.1434   -0.0000 C   0  0  0  0  0  0  0  0  0  0  0  0
   -8.6221   -1.8479   -0.0000 C   0  0  0  0  0  0  0  0  0  0  0  0
   -8.0343   -1.0389   -0.0000 C   0  0  0  0  0  0  0  0  0  0  0  0
  1  2  2  0  0  0  0
  2  3  1  0  0  0  0
  2  4  1  0  0  0  0
  3  5  1  0  0  0  0
  4  6  1  0  0  0  0
  4  7  1  0  0  0  0
  5  8  1  0  0  0  0
  7  9  1  0  0  0  0
  7 10  1  0  0  0  0
  8 11  1  0  0  0  0
  8 12  2  0  0  0  0
  9 13  1  0  0  0  0
 10 14  2  0  0  0  0
 10 15  1  0  0  0  0
 11 16  2  0  0  0  0
 11 17  1  0  0  0  0
 12 18  1  0  0  0  0
 13 19  2  0  0  0  0
 13 20  1  0  0  0  0
 14 21  1  0  0  0  0
 15 22  2  0  0  0  0
 17 23  1  0  0  0  0
 18 24  1  0  0  0  0
 19 25  1  0  0  0  0
 20 26  2  0  0  0  0
 21 27  2  0  0  0  0
 23 28  1  0  0  0  0
 24 29  2  0  0  0  0
 25 30  2  0  0  0  0
 27 31  1  0  0  0  0
 28 32  2  0  0  0  0
 30 33  1  0  0  0  0
 31 34  1  0  0  0  0
 31 35  1  0  0  0  0
 33 36  1  0  0  0  0
 36 37  2  0  0  0  0
 36 38  1  0  0  0  0
 37 39  1  0  0  0  0
 38 40  2  0  0  0  0
 39 41  2  0  0  0  0
 41 42  1  0  0  0  0
 42 43  1  0  0  0  0
 43 44  1  0  0  0  0
 43 45  1  0  0  0  0
 44 46  1  0  0  0  0
 44 47  1  0  0  0  0
 45 48  2  0  0  0  0
 45 49  1  0  0  0  0
 46 50  2  0  0  0  0
 47 51  2  0  0  0  0
 47 52  1  0  0  0  0
 48 53  1  0  0  0  0
 49 54  2  0  0  0  0
 50 55  1  0  0  0  0
 53 56  2  0  0  0  0
 55 57  1  0  0  0  0
 55 58  2  0  0  0  0
 56 59  1  0  0  0  0
 57 60  2  0  0  0  0
 57 61  1  0  0  0  0
 58 62  1  0  0  0  0
 59 63  1  0  0  0  0
 59 64  1  0  0  0  0
 61 65  1  0  0  0  0
 62 66  2  0  0  0  0
 65 67  2  0  0  0  0
 66 68  1  0  0  0  0
 67 69  1  0  0  0  0
  5  6  2  0  0  0  0
 18 23  2  0  0  0  0
 22 27  1  0  0  0  0
 26 30  1  0  0  0  0
 29 32  1  0  0  0  0
 40 41  1  0  0  0  0
 50 52  1  0  0  0  0
 54 56  1  0  0  0  0
 62 65  1  0  0  0  0
 68 69  2  0  0  0  0
M  END
>  <S/N>
538

>  <Compound ID>
C_555

>  <PubChem CID>
155549196

>  <Isomeric SMILES>
CN(C)C1=CC=C(C=C1)C(NC2=CC=C(C=C2)OC3=CC=C(C=C3)NC(C4=CC=C(C=C4)N(C)C)N5C(=S)OC(=N5)C6=CC7=CC=CC=C7OC6=O)N8C(=S)OC(=N8)C9=CC1=CC=CC=C1OC9=O

>  <IC50 (�M)>
0.07

>  <pIC50>
7.15

$$$$
C_556
Actelion Java MolfileCreator 1.0

 26 29  0  0  0  0  0  0  0  0999 V2000
    2.7026    0.9945   -0.0000 S   0  0  0  0  0  0  0  0  0  0  0  0
    2.5981   -0.0000   -0.0000 C   0  0  0  0  0  0  0  0  0  0  0  0
    3.6808    1.2024   -0.0000 C   0  0  0  0  0  0  0  0  0  0  0  0
    3.5116   -0.4067   -0.0000 N   0  0  0  0  0  0  0  0  0  0  0  0
    1.7321   -0.5000   -0.0000 N   0  0  0  0  0  0  0  0  0  0  0  0
    4.1808    0.3364   -0.0000 C   0  0  0  0  0  0  0  0  0  0  0  0
    0.8660   -0.0000   -0.0000 N   0  0  0  0  0  0  0  0  0  0  0  0
    5.1753    0.2319   -0.0000 C   0  0  0  0  0  0  0  0  0  0  0  0
    0.0000   -0.5000   -0.0000 C   0  0  0  0  0  0  0  0  0  0  0  0
    5.5820   -0.6817   -0.0000 C   0  0  0  0  0  0  0  0  0  0  0  0
    5.7631    1.0409   -0.0000 C   0  0  0  0  0  0  0  0  0  0  0  0
   -0.9135   -0.0933   -0.0000 C   0  0  0  0  0  0  0  0  0  0  0  0
   -0.1045   -1.4945   -0.0000 C   0  0  0  0  0  0  0  0  0  0  0  0
    6.5765   -0.7862   -0.0000 C   0  0  0  0  0  0  0  0  0  0  0  0
    6.7576    0.9364   -0.0000 C   0  0  0  0  0  0  0  0  0  0  0  0
   -1.1215    0.8849   -0.0000 O   0  0  0  0  0  0  0  0  0  0  0  0
   -1.5827   -0.8364   -0.0000 N   0  0  0  0  0  0  0  0  0  0  0  0
   -1.0827   -1.7024   -0.0000 C   0  0  0  0  0  0  0  0  0  0  0  0
    0.5646   -2.2377   -0.0000 C   0  0  0  0  0  0  0  0  0  0  0  0
    7.1643    0.0228   -0.0000 C   0  0  0  0  0  0  0  0  0  0  0  0
   -1.3917   -2.6535   -0.0000 C   0  0  0  0  0  0  0  0  0  0  0  0
    0.2556   -3.1887   -0.0000 C   0  0  0  0  0  0  0  0  0  0  0  0
    8.1588   -0.0817   -0.0000 C   0  0  0  0  0  0  0  0  0  0  0  0
   -0.7226   -3.3966   -0.0000 C   0  0  0  0  0  0  0  0  0  0  0  0
   -2.3698   -2.8614   -0.0000 C   0  0  0  0  0  0  0  0  0  0  0  0
    0.9247   -3.9319   -0.0000 C   0  0  0  0  0  0  0  0  0  0  0  0
  1  2  1  0  0  0  0
  1  3  1  0  0  0  0
  2  4  2  0  0  0  0
  2  5  1  0  0  0  0
  3  6  2  0  0  0  0
  5  7  2  3  0  0  0
  6  8  1  0  0  0  0
  7  9  1  0  0  0  0
  8 10  2  0  0  0  0
  8 11  1  0  0  0  0
  9 12  2  0  0  0  0
  9 13  1  0  0  0  0
 10 14  1  0  0  0  0
 11 15  2  0  0  0  0
 12 16  1  0  0  0  0
 12 17  1  0  0  0  0
 13 18  2  0  0  0  0
 13 19  1  0  0  0  0
 14 20  2  0  0  0  0
 18 21  1  0  0  0  0
 19 22  2  0  0  0  0
 20 23  1  0  0  0  0
 21 24  2  0  0  0  0
 21 25  1  0  0  0  0
 22 26  1  0  0  0  0
  4  6  1  0  0  0  0
 15 20  1  0  0  0  0
 17 18  1  0  0  0  0
 22 24  1  0  0  0  0
M  END
>  <S/N>
539

>  <Compound ID>
C_556

>  <PubChem CID>
155549256

>  <Isomeric SMILES>
CC1=CC=C(C=C1)C2=CSC(=N2)N=NC3=C(NC4=C(C=C(C=C43)C)C)O

>  <IC50 (�M)>
5.3

>  <pIC50>
5.28

$$$$
C_557
Actelion Java MolfileCreator 1.0

 36 40  0  0  0  0  0  0  0  0999 V2000
    6.9872   -7.1837   -0.0000 O   0  0  0  0  0  0  0  0  0  0  0  0
    5.9927   -7.0792   -0.0000 C   0  0  0  0  0  0  0  0  0  0  0  0
    5.5859   -6.1656   -0.0000 C   0  0  0  0  0  0  0  0  0  0  0  0
    5.4049   -7.8882   -0.0000 C   0  0  0  0  0  0  0  0  0  0  0  0
    4.5914   -6.0611   -0.0000 C   0  0  0  0  0  0  0  0  0  0  0  0
    6.1737   -5.3566   -0.0000 C   0  0  0  0  0  0  0  0  0  0  0  0
    4.4104   -7.7837   -0.0000 C   0  0  0  0  0  0  0  0  0  0  0  0
    5.8116   -8.8017   -0.0000 C   0  0  0  0  0  0  0  0  0  0  0  0
    4.0036   -6.8701   -0.0000 O   0  0  0  0  0  0  0  0  0  0  0  0
    4.1847   -5.1476   -0.0000 C   0  0  0  0  0  0  0  0  0  0  0  0
    7.1682   -5.4611   -0.0000 O   0  0  0  0  0  0  0  0  0  0  0  0
    5.7670   -4.4431   -0.0000 C   0  0  0  0  0  0  0  0  0  0  0  0
    3.8226   -8.5927   -0.0000 C   0  0  0  0  0  0  0  0  0  0  0  0
    5.2238   -9.6108   -0.0000 C   0  0  0  0  0  0  0  0  0  0  0  0
    4.7725   -4.3385   -0.0000 C   0  0  0  0  0  0  0  0  0  0  0  0
    4.2293   -9.5062   -0.0000 C   0  0  0  0  0  0  0  0  0  0  0  0
    5.6306  -10.5243   -0.0000 O   0  0  0  0  0  0  0  0  0  0  0  0
    4.3657   -3.4250   -0.0000 O   0  0  0  0  0  0  0  0  0  0  0  0
    4.9535   -2.6160   -0.0000 C   0  0  0  0  0  0  0  0  0  0  0  0
    4.5468   -1.7024   -0.0000 C   0  0  0  0  0  0  0  0  0  0  0  0
    5.0468   -0.8364   -0.0000 N   0  0  0  0  0  0  0  0  0  0  0  0
    3.5686   -1.4945   -0.0000 C   0  0  0  0  0  0  0  0  0  0  0  0
    4.3776   -0.0933   -0.0000 N   0  0  0  0  0  0  0  0  0  0  0  0
    3.4641   -0.5000   -0.0000 N   0  0  0  0  0  0  0  0  0  0  0  0
    2.5981   -0.0000   -0.0000 C   0  0  0  0  0  0  0  0  0  0  0  0
    1.7321   -0.5000   -0.0000 C   0  0  0  0  0  0  0  0  0  0  0  0
    1.7321   -1.5000   -0.0000 O   0  0  0  0  0  0  0  0  0  0  0  0
    0.8660   -0.0000   -0.0000 N   0  0  0  0  0  0  0  0  0  0  0  0
    0.0000   -0.5000   -0.0000 C   0  0  0  0  0  0  0  0  0  0  0  0
   -0.8660    0.0000   -0.0000 C   0  0  0  0  0  0  0  0  0  0  0  0
   -0.0000   -1.5000   -0.0000 C   0  0  0  0  0  0  0  0  0  0  0  0
   -0.8660    1.0000   -0.0000 O   0  0  0  0  0  0  0  0  0  0  0  0
   -1.7321   -0.5000   -0.0000 C   0  0  0  0  0  0  0  0  0  0  0  0
   -0.8660   -2.0000   -0.0000 C   0  0  0  0  0  0  0  0  0  0  0  0
   -1.7321   -1.5000   -0.0000 C   0  0  0  0  0  0  0  0  0  0  0  0
   -2.5981   -2.0000   -0.0000 O   0  0  0  0  0  0  0  0  0  0  0  0
  1  2  2  0  0  0  0
  2  3  1  0  0  0  0
  2  4  1  0  0  0  0
  3  5  2  0  0  0  0
  3  6  1  0  0  0  0
  4  7  2  0  0  0  0
  4  8  1  0  0  0  0
  5  9  1  0  0  0  0
  5 10  1  0  0  0  0
  6 11  1  0  0  0  0
  6 12  2  0  0  0  0
  7 13  1  0  0  0  0
  8 14  2  0  0  0  0
 10 15  2  0  0  0  0
 13 16  2  0  0  0  0
 14 17  1  0  0  0  0
 15 18  1  0  0  0  0
 18 19  1  0  0  0  0
 19 20  1  0  0  0  0
 20 21  1  0  0  0  0
 20 22  2  0  0  0  0
 21 23  2  0  0  0  0
 22 24  1  0  0  0  0
 24 25  1  0  0  0  0
 25 26  1  0  0  0  0
 26 27  2  0  0  0  0
 26 28  1  0  0  0  0
 28 29  1  0  0  0  0
 29 30  2  0  0  0  0
 29 31  1  0  0  0  0
 30 32  1  0  0  0  0
 30 33  1  0  0  0  0
 31 34  2  0  0  0  0
 33 35  2  0  0  0  0
 35 36  1  0  0  0  0
  7  9  1  0  0  0  0
 12 15  1  0  0  0  0
 14 16  1  0  0  0  0
 23 24  1  0  0  0  0
 34 35  1  0  0  0  0
M  END
>  <S/N>
540

>  <Compound ID>
C_557

>  <PubChem CID>
155549339

>  <Isomeric SMILES>
C1=CC(=C(C=C1O)O)NC(=O)CN2C=C(N=N2)COC3=CC(=C4C(=C3)OC5=C(C4=O)C=C(C=C5)O)O

>  <IC50 (�M)>
15.62

>  <pIC50>
4.81

$$$$
C_558
Actelion Java MolfileCreator 1.0

 29 32  0  0  0  0  0  0  0  0999 V2000
    3.4641    5.5000   -0.0000 Br  0  0  0  0  0  0  0  0  0  0  0  0
    3.4641    4.5000   -0.0000 C   0  0  0  0  0  0  0  0  0  0  0  0
    2.5981    4.0000   -0.0000 C   0  0  0  0  0  0  0  0  0  0  0  0
    4.3301    4.0000   -0.0000 C   0  0  0  0  0  0  0  0  0  0  0  0
    2.5981    3.0000   -0.0000 C   0  0  0  0  0  0  0  0  0  0  0  0
    4.3301    3.0000   -0.0000 C   0  0  0  0  0  0  0  0  0  0  0  0
    3.4641    2.5000   -0.0000 C   0  0  0  0  0  0  0  0  0  0  0  0
    3.4641    1.5000   -0.0000 C   0  0  0  0  0  0  0  0  0  0  0  0
    2.5981    1.0000   -0.0000 N   0  0  0  0  0  0  0  0  0  0  0  0
    4.3301    1.0000   -0.0000 C   0  0  0  0  0  0  0  0  0  0  0  0
    2.5981   -0.0000   -0.0000 C   0  0  0  0  0  0  0  0  0  0  0  0
    4.3301   -0.0000   -0.0000 C   0  0  0  0  0  0  0  0  0  0  0  0
    1.7321   -0.5000   -0.0000 S   0  0  0  0  0  0  0  0  0  0  0  0
    3.4641   -0.5000   -0.0000 N   0  0  0  0  0  0  0  0  0  0  0  0
    5.1962   -0.5000   -0.0000 C   0  0  0  0  0  0  0  0  0  0  0  0
    0.8660   -0.0000   -0.0000 C   0  0  0  0  0  0  0  0  0  0  0  0
    5.1962   -1.5000   -0.0000 C   0  0  0  0  0  0  0  0  0  0  0  0
    6.0622   -0.0000   -0.0000 C   0  0  0  0  0  0  0  0  0  0  0  0
    0.0000   -0.5000   -0.0000 C   0  0  0  0  0  0  0  0  0  0  0  0
    6.0622   -2.0000   -0.0000 C   0  0  0  0  0  0  0  0  0  0  0  0
    6.9282   -0.5000   -0.0000 C   0  0  0  0  0  0  0  0  0  0  0  0
   -0.8660    0.0000   -0.0000 C   0  0  0  0  0  0  0  0  0  0  0  0
   -0.0000   -1.5000   -0.0000 C   0  0  0  0  0  0  0  0  0  0  0  0
    6.9282   -1.5000   -0.0000 C   0  0  0  0  0  0  0  0  0  0  0  0
   -1.7321   -0.5000   -0.0000 C   0  0  0  0  0  0  0  0  0  0  0  0
   -0.8660   -2.0000   -0.0000 C   0  0  0  0  0  0  0  0  0  0  0  0
    7.7942   -2.0000   -0.0000 C   0  0  0  0  0  0  0  0  0  0  0  0
   -1.7321   -1.5000   -0.0000 C   0  0  0  0  0  0  0  0  0  0  0  0
   -2.5981   -2.0000   -0.0000 Cl  0  0  0  0  0  0  0  0  0  0  0  0
  1  2  1  0  0  0  0
  2  3  2  0  0  0  0
  2  4  1  0  0  0  0
  3  5  1  0  0  0  0
  4  6  2  0  0  0  0
  5  7  2  0  0  0  0
  7  8  1  0  0  0  0
  8  9  2  0  0  0  0
  8 10  1  0  0  0  0
  9 11  1  0  0  0  0
 10 12  2  0  0  0  0
 11 13  1  0  0  0  0
 11 14  2  0  0  0  0
 12 15  1  0  0  0  0
 13 16  1  0  0  0  0
 15 17  2  0  0  0  0
 15 18  1  0  0  0  0
 16 19  1  0  0  0  0
 17 20  1  0  0  0  0
 18 21  2  0  0  0  0
 19 22  2  0  0  0  0
 19 23  1  0  0  0  0
 20 24  2  0  0  0  0
 22 25  1  0  0  0  0
 23 26  2  0  0  0  0
 24 27  1  0  0  0  0
 25 28  2  0  0  0  0
 28 29  1  0  0  0  0
  6  7  1  0  0  0  0
 12 14  1  0  0  0  0
 21 24  1  0  0  0  0
 26 28  1  0  0  0  0
M  END
>  <S/N>
541

>  <Compound ID>
C_558

>  <PubChem CID>
155549603

>  <Isomeric SMILES>
CC1=CC=C(C=C1)C2=CC(=NC(=N2)SCC3=CC=C(C=C3)Cl)C4=CC=C(C=C4)Br

>  <IC50 (�M)>
19

>  <pIC50>
4.72

$$$$
C_559
Actelion Java MolfileCreator 1.0

 28 32  0  0  1  0  0  0  0  0999 V2000
    6.5665   -0.1399   -0.0000 S   0  0  0  0  0  0  0  0  0  0  0  0
    5.1962   -0.7500   -0.0000 C   0  0  0  0  0  0  0  0  0  0  0  0
    7.5702   -1.2546   -0.0000 C   0  0  0  0  0  0  0  0  0  0  0  0
    5.3529   -2.2418   -0.0000 C   0  0  0  0  0  0  0  0  0  0  0  0
    3.8971   -0.0000   -0.0000 C   0  0  0  0  0  0  0  0  0  0  0  0
    6.8202   -2.5537   -0.0000 C   0  0  0  0  0  0  0  0  0  0  0  0
    3.8971    1.5000   -0.0000 C   0  0  0  0  0  0  0  0  0  0  0  0
    2.5981   -0.7500   -0.0000 C   0  0  0  0  0  0  0  0  0  0  0  0
    5.1106    2.3817   -0.0000 C   0  0  0  0  0  0  0  0  0  0  0  0
    2.6836    2.3817   -0.0000 C   0  0  0  0  0  0  0  0  0  0  0  0
    1.2990   -0.0000   -0.0000 C   0  0  0  0  0  0  0  0  0  0  0  0
    4.6471    3.8083   -0.0000 C   0  0  0  0  0  0  0  0  0  0  0  0
    6.5779    2.0698   -0.0000 C   0  0  0  0  0  0  0  0  0  0  0  0
    3.1471    3.8083   -0.0000 N   0  0  0  0  0  0  0  0  0  0  0  0
    1.2990    1.5000   -0.0000 O   0  0  0  0  0  0  0  0  0  0  0  0
    0.0000   -0.7500   -0.0000 C   0  0  0  0  0  0  0  0  0  0  0  0
    5.6508    4.9230   -0.0000 C   0  0  0  0  0  0  0  0  0  0  0  0
    7.5816    3.1845   -0.0000 C   0  0  0  0  0  0  0  0  0  0  0  0
   -1.2990    0.0000   -0.0000 C   0  0  0  0  0  0  0  0  0  0  0  0
   -0.0000   -2.2500   -0.0000 C   0  0  0  0  0  0  0  0  0  0  0  0
    7.1180    4.6111   -0.0000 C   0  0  0  0  0  0  0  0  0  0  0  0
   -2.5981   -0.7500   -0.0000 C   0  0  0  0  0  0  0  0  0  0  0  0
   -1.2990   -3.0000   -0.0000 C   0  0  0  0  0  0  0  0  0  0  0  0
   -2.5981   -2.2500   -0.0000 C   0  0  0  0  0  0  0  0  0  0  0  0
   -3.8971    0.0000   -0.0000 C   0  0  0  0  0  0  0  0  0  0  0  0
   -3.8971   -3.0000   -0.0000 C   0  0  0  0  0  0  0  0  0  0  0  0
   -5.1962   -0.7500   -0.0000 C   0  0  0  0  0  0  0  0  0  0  0  0
   -5.1962   -2.2500   -0.0000 C   0  0  0  0  0  0  0  0  0  0  0  0
  1  2  1  0  0  0  0
  1  3  1  0  0  0  0
  2  4  2  0  0  0  0
  2  5  1  0  0  0  0
  3  6  2  0  0  0  0
  5  7  1  0  0  0  0
  5  8  1  6  0  0  0
  7  9  1  0  0  0  0
  7 10  2  0  0  0  0
  8 11  1  0  0  0  0
  9 12  2  0  0  0  0
  9 13  1  0  0  0  0
 10 14  1  0  0  0  0
 11 15  2  0  0  0  0
 11 16  1  0  0  0  0
 12 17  1  0  0  0  0
 13 18  2  0  0  0  0
 16 19  2  0  0  0  0
 16 20  1  0  0  0  0
 17 21  2  0  0  0  0
 19 22  1  0  0  0  0
 20 23  2  0  0  0  0
 22 24  2  0  0  0  0
 22 25  1  0  0  0  0
 24 26  1  0  0  0  0
 25 27  2  0  0  0  0
 26 28  2  0  0  0  0
  4  6  1  0  0  0  0
 12 14  1  0  0  0  0
 18 21  1  0  0  0  0
 23 24  1  0  0  0  0
 27 28  1  0  0  0  0
M  END
>  <S/N>
542

>  <Compound ID>
C_559

>  <PubChem CID>
155549930

>  <Isomeric SMILES>
C1=CC=C2C=C(C=CC2=C1)C(=O)C[C@@H](C3=CC=CS3)C4=CNC5=CC=CC=C54

>  <IC50 (�M)>
4.3

>  <pIC50>
5.37

$$$$
C_560
Actelion Java MolfileCreator 1.0

 31 35  0  0  0  0  0  0  0  0999 V2000
    2.6456   -0.0933   -0.0000 S   0  0  0  0  0  0  0  0  0  0  0  0
    3.3147   -0.8364   -0.0000 C   0  0  0  0  0  0  0  0  0  0  0  0
    1.7321   -0.5000   -0.0000 C   0  0  0  0  0  0  0  0  0  0  0  0
    4.3092   -0.7319   -0.0000 O   0  0  0  0  0  0  0  0  0  0  0  0
    2.8147   -1.7024   -0.0000 N   0  0  0  0  0  0  0  0  0  0  0  0
    1.8366   -1.4945   -0.0000 C   0  0  0  0  0  0  0  0  0  0  0  0
    0.8660   -0.0000   -0.0000 C   0  0  0  0  0  0  0  0  0  0  0  0
    1.0934   -2.1637   -0.0000 O   0  0  0  0  0  0  0  0  0  0  0  0
    0.0000   -0.5000   -0.0000 C   0  0  0  0  0  0  0  0  0  0  0  0
   -0.8660    0.0000   -0.0000 C   0  0  0  0  0  0  0  0  0  0  0  0
   -0.0000   -1.5000   -0.0000 C   0  0  0  0  0  0  0  0  0  0  0  0
   -1.7321   -0.5000   -0.0000 C   0  0  0  0  0  0  0  0  0  0  0  0
   -0.8660   -2.0000   -0.0000 C   0  0  0  0  0  0  0  0  0  0  0  0
   -1.7321   -1.5000   -0.0000 C   0  0  0  0  0  0  0  0  0  0  0  0
   -2.5981   -2.0000   -0.0000 N   0  0  0  0  0  0  0  0  0  0  0  0
   -3.5116   -1.5933   -0.0000 C   0  0  0  0  0  0  0  0  0  0  0  0
   -2.7026   -2.9945   -0.0000 C   0  0  0  0  0  0  0  0  0  0  0  0
   -3.8206   -0.6422   -0.0000 N   0  0  0  0  0  0  0  0  0  0  0  0
   -4.1808   -2.3364   -0.0000 C   0  0  0  0  0  0  0  0  0  0  0  0
   -3.6808   -3.2024   -0.0000 C   0  0  0  0  0  0  0  0  0  0  0  0
   -4.7988   -0.4343   -0.0000 C   0  0  0  0  0  0  0  0  0  0  0  0
   -5.1589   -2.1285   -0.0000 C   0  0  0  0  0  0  0  0  0  0  0  0
   -5.4679   -1.1774   -0.0000 C   0  0  0  0  0  0  0  0  0  0  0  0
   -5.8280   -2.8716   -0.0000 N   0  0  0  0  0  0  0  0  0  0  0  0
   -5.5190   -3.8227   -0.0000 C   0  0  0  0  0  0  0  0  0  0  0  0
   -6.1881   -4.5658   -0.0000 C   0  0  0  0  0  0  0  0  0  0  0  0
   -4.5409   -4.0306   -0.0000 C   0  0  0  0  0  0  0  0  0  0  0  0
   -5.8791   -5.5169   -0.0000 C   0  0  0  0  0  0  0  0  0  0  0  0
   -4.2318   -4.9817   -0.0000 C   0  0  0  0  0  0  0  0  0  0  0  0
   -4.9010   -5.7248   -0.0000 C   0  0  0  0  0  0  0  0  0  0  0  0
   -4.5920   -6.6759   -0.0000 F   0  0  0  0  0  0  0  0  0  0  0  0
  1  2  1  0  0  0  0
  1  3  1  0  0  0  0
  2  4  2  0  0  0  0
  2  5  1  0  0  0  0
  3  6  1  0  0  0  0
  3  7  2  0  0  0  0
  6  8  2  0  0  0  0
  7  9  1  0  0  0  0
  9 10  2  0  0  0  0
  9 11  1  0  0  0  0
 10 12  1  0  0  0  0
 11 13  2  0  0  0  0
 12 14  2  0  0  0  0
 14 15  1  0  0  0  0
 15 16  1  0  0  0  0
 15 17  1  0  0  0  0
 16 18  2  0  0  0  0
 16 19  1  0  0  0  0
 17 20  2  0  0  0  0
 18 21  1  0  0  0  0
 19 22  2  0  0  0  0
 21 23  2  0  0  0  0
 22 24  1  0  0  0  0
 24 25  1  0  0  0  0
 25 26  2  0  0  0  0
 25 27  1  0  0  0  0
 26 28  1  0  0  0  0
 27 29  2  0  0  0  0
 28 30  2  0  0  0  0
 30 31  1  0  0  0  0
  5  6  1  0  0  0  0
 13 14  1  0  0  0  0
 19 20  1  0  0  0  0
 22 23  1  0  0  0  0
 29 30  1  0  0  0  0
M  END
>  <S/N>
543

>  <Compound ID>
C_560

>  <PubChem CID>
155550722

>  <Isomeric SMILES>
C1=CC(=CC=C1/C=C/2\C(=O)NC(=O)S2)N3C=CC4=C(C=CN=C43)NC5=CC=C(C=C5)F

>  <IC50 (�M)>
0.55

>  <pIC50>
6.26

$$$$
C_561
Actelion Java MolfileCreator 1.0

 32 36  0  0  0  0  0  0  0  0999 V2000
    4.3301   -0.0000   -0.0000 Br  0  0  0  0  0  0  0  0  0  0  0  0
    3.4641   -0.5000   -0.0000 C   0  0  0  0  0  0  0  0  0  0  0  0
    2.5981   -0.0000   -0.0000 C   0  0  0  0  0  0  0  0  0  0  0  0
    3.4641   -1.5000   -0.0000 C   0  0  0  0  0  0  0  0  0  0  0  0
    1.7321   -0.5000   -0.0000 C   0  0  0  0  0  0  0  0  0  0  0  0
    2.5981   -2.0000   -0.0000 C   0  0  0  0  0  0  0  0  0  0  0  0
    1.7321   -1.5000   -0.0000 C   0  0  0  0  0  0  0  0  0  0  0  0
    0.8660   -0.0000   -0.0000 C   0  0  0  0  0  0  0  0  0  0  0  0
    0.8660    1.0000   -0.0000 C   0  0  0  0  0  0  0  0  0  0  0  0
    0.0000   -0.5000   -0.0000 C   0  0  0  0  0  0  0  0  0  0  0  0
   -0.0000    1.5000   -0.0000 C   0  0  0  0  0  0  0  0  0  0  0  0
    1.7321    1.5000   -0.0000 C   0  0  0  0  0  0  0  0  0  0  0  0
   -0.8660    0.0000   -0.0000 C   0  0  0  0  0  0  0  0  0  0  0  0
   -0.0000   -1.5000   -0.0000 C   0  0  0  0  0  0  0  0  0  0  0  0
   -1.0180    0.8015   -0.0000 O   0  0  0  0  0  0  0  0  0  0  0  0
   -0.0000    2.5000   -0.0000 O   0  0  0  0  0  0  0  0  0  0  0  0
    2.5981    1.0000   -0.0000 N   0  0  0  0  0  0  0  0  0  0  0  0
    1.7321    2.5000   -0.0000 C   0  0  0  0  0  0  0  0  0  0  0  0
   -0.9855    1.1741   -0.0000 O   0  0  0  0  0  0  0  0  0  0  0  0
   -1.7321   -0.5000   -0.0000 O   0  0  0  0  0  0  0  0  0  0  0  0
    0.8660   -2.0000   -0.0000 N   0  0  0  0  0  0  0  0  0  0  0  0
   -0.8660   -2.0000   -0.0000 C   0  0  0  0  0  0  0  0  0  0  0  0
    0.8660    3.0000   -0.0000 C   0  0  0  0  0  0  0  0  0  0  0  0
    2.5981    3.0000   -0.0000 C   0  0  0  0  0  0  0  0  0  0  0  0
   -1.7321   -1.5000   -0.0000 C   0  0  0  0  0  0  0  0  0  0  0  0
   -0.8660   -3.0000   -0.0000 C   0  0  0  0  0  0  0  0  0  0  0  0
    0.8660    4.0000   -0.0000 C   0  0  0  0  0  0  0  0  0  0  0  0
    2.5981    4.0000   -0.0000 C   0  0  0  0  0  0  0  0  0  0  0  0
   -2.5981   -2.0000   -0.0000 C   0  0  0  0  0  0  0  0  0  0  0  0
   -1.7321   -3.5000   -0.0000 C   0  0  0  0  0  0  0  0  0  0  0  0
    1.7321    4.5000   -0.0000 C   0  0  0  0  0  0  0  0  0  0  0  0
   -2.5981   -3.0000   -0.0000 C   0  0  0  0  0  0  0  0  0  0  0  0
  1  2  1  0  0  0  0
  2  3  2  0  0  0  0
  2  4  1  0  0  0  0
  3  5  1  0  0  0  0
  4  6  2  0  0  0  0
  5  7  2  0  0  0  0
  5  8  1  0  0  0  0
  8  9  1  0  0  0  0
  8 10  1  0  0  0  0
  9 11  1  0  0  0  0
  9 12  2  0  0  0  0
 10 13  1  0  0  0  0
 10 14  2  0  0  0  0
 11 15  2  0  0  0  0
 11 16  1  0  0  0  0
 12 17  1  0  0  0  0
 12 18  1  0  0  0  0
 13 19  2  0  0  0  0
 13 20  1  0  0  0  0
 14 21  1  0  0  0  0
 14 22  1  0  0  0  0
 16 23  1  0  0  0  0
 18 24  2  0  0  0  0
 20 25  1  0  0  0  0
 22 26  2  0  0  0  0
 23 27  2  0  0  0  0
 24 28  1  0  0  0  0
 25 29  2  0  0  0  0
 26 30  1  0  0  0  0
 27 31  1  0  0  0  0
 29 32  1  0  0  0  0
  6  7  1  0  0  0  0
 18 23  1  0  0  0  0
 22 25  1  0  0  0  0
 28 31  2  0  0  0  0
 30 32  2  0  0  0  0
M  END
>  <S/N>
544

>  <Compound ID>
C_561

>  <PubChem CID>
155550923

>  <Isomeric SMILES>
C1=CC=C2C(=C1)C(=C(C(=O)O2)C(C3=CC(=CC=C3)Br)C4=C(C5=CC=CC=C5OC4=O)N)N

>  <IC50 (�M)>
20

>  <pIC50>
4.7

$$$$
C_562
Actelion Java MolfileCreator 1.0

 43 50  0  0  0  0  0  0  0  0999 V2000
    7.8655   -2.3899   -0.0000 O   0  0  0  0  0  0  0  0  0  0  0  0
    6.4952   -3.0000   -0.0000 C   0  0  0  0  0  0  0  0  0  0  0  0
    8.8692   -3.5046   -0.0000 C   0  0  0  0  0  0  0  0  0  0  0  0
    6.6520   -4.4918   -0.0000 N   0  0  0  0  0  0  0  0  0  0  0  0
    5.1962   -2.2500   -0.0000 C   0  0  0  0  0  0  0  0  0  0  0  0
    8.1192   -4.8037   -0.0000 N   0  0  0  0  0  0  0  0  0  0  0  0
   10.3610   -3.3478   -0.0000 C   0  0  0  0  0  0  0  0  0  0  0  0
    5.1962   -0.7500   -0.0000 C   0  0  0  0  0  0  0  0  0  0  0  0
    3.8971   -3.0000   -0.0000 C   0  0  0  0  0  0  0  0  0  0  0  0
   11.3647   -4.4625   -0.0000 C   0  0  0  0  0  0  0  0  0  0  0  0
   11.1110   -2.0488   -0.0000 C   0  0  0  0  0  0  0  0  0  0  0  0
    3.8971    0.0000   -0.0000 C   0  0  0  0  0  0  0  0  0  0  0  0
    2.5981   -2.2500   -0.0000 C   0  0  0  0  0  0  0  0  0  0  0  0
   12.7350   -3.8524   -0.0000 C   0  0  0  0  0  0  0  0  0  0  0  0
   11.2079   -5.9543   -0.0000 C   0  0  0  0  0  0  0  0  0  0  0  0
   12.5782   -2.3606   -0.0000 N   0  0  0  0  0  0  0  0  0  0  0  0
    2.5981   -0.7500   -0.0000 C   0  0  0  0  0  0  0  0  0  0  0  0
   13.9485   -4.7341   -0.0000 C   0  0  0  0  0  0  0  0  0  0  0  0
   12.4214   -6.8360   -0.0000 C   0  0  0  0  0  0  0  0  0  0  0  0
    1.2990   -0.0000   -0.0000 C   0  0  0  0  0  0  0  0  0  0  0  0
   13.7917   -6.2259   -0.0000 C   0  0  0  0  0  0  0  0  0  0  0  0
    1.2990    1.5000   -0.0000 C   0  0  0  0  0  0  0  0  0  0  0  0
    0.0000   -0.7500   -0.0000 C   0  0  0  0  0  0  0  0  0  0  0  0
    0.0855    2.3817   -0.0000 C   0  0  0  0  0  0  0  0  0  0  0  0
    2.5126    2.3817   -0.0000 C   0  0  0  0  0  0  0  0  0  0  0  0
   -1.3703   -0.1399   -0.0000 C   0  0  0  0  0  0  0  0  0  0  0  0
   -0.1568   -2.2418   -0.0000 C   0  0  0  0  0  0  0  0  0  0  0  0
    0.5490    3.8083   -0.0000 C   0  0  0  0  0  0  0  0  0  0  0  0
   -1.3817    2.0698   -0.0000 C   0  0  0  0  0  0  0  0  0  0  0  0
    2.0490    3.8083   -0.0000 N   0  0  0  0  0  0  0  0  0  0  0  0
    3.9391    1.9182   -0.0000 C   0  0  0  0  0  0  0  0  0  0  0  0
   -2.3740   -1.2546   -0.0000 C   0  0  0  0  0  0  0  0  0  0  0  0
   -1.8338    1.2867   -0.0000 C   0  0  0  0  0  0  0  0  0  0  0  0
   -1.6240   -2.5537   -0.0000 N   0  0  0  0  0  0  0  0  0  0  0  0
    0.9579   -3.2455   -0.0000 C   0  0  0  0  0  0  0  0  0  0  0  0
   -0.4547    4.9230   -0.0000 C   0  0  0  0  0  0  0  0  0  0  0  0
   -2.3854    3.1845   -0.0000 C   0  0  0  0  0  0  0  0  0  0  0  0
    2.9307    5.0218   -0.0000 C   0  0  0  0  0  0  0  0  0  0  0  0
   -3.8412   -0.9427   -0.0000 C   0  0  0  0  0  0  0  0  0  0  0  0
   -3.3011    1.5986   -0.0000 C   0  0  0  0  0  0  0  0  0  0  0  0
   -2.2341   -3.9240   -0.0000 C   0  0  0  0  0  0  0  0  0  0  0  0
   -1.9219    4.6111   -0.0000 C   0  0  0  0  0  0  0  0  0  0  0  0
   -4.3048    0.4838   -0.0000 C   0  0  0  0  0  0  0  0  0  0  0  0
  1  2  1  0  0  0  0
  1  3  1  0  0  0  0
  2  4  2  0  0  0  0
  2  5  1  0  0  0  0
  3  6  2  0  0  0  0
  3  7  1  0  0  0  0
  5  8  2  0  0  0  0
  5  9  1  0  0  0  0
  7 10  1  0  0  0  0
  7 11  2  0  0  0  0
  8 12  1  0  0  0  0
  9 13  2  0  0  0  0
 10 14  2  0  0  0  0
 10 15  1  0  0  0  0
 11 16  1  0  0  0  0
 12 17  2  0  0  0  0
 14 18  1  0  0  0  0
 15 19  2  0  0  0  0
 17 20  1  0  0  0  0
 18 21  2  0  0  0  0
 20 22  1  0  0  0  0
 20 23  1  0  0  0  0
 22 24  1  0  0  0  0
 22 25  2  0  0  0  0
 23 26  1  0  0  0  0
 23 27  2  0  0  0  0
 24 28  2  0  0  0  0
 24 29  1  0  0  0  0
 25 30  1  0  0  0  0
 25 31  1  0  0  0  0
 26 32  2  0  0  0  0
 26 33  1  0  0  0  0
 27 34  1  0  0  0  0
 27 35  1  0  0  0  0
 28 36  1  0  0  0  0
 29 37  2  0  0  0  0
 30 38  1  0  0  0  0
 32 39  1  0  0  0  0
 33 40  2  0  0  0  0
 34 41  1  0  0  0  0
 36 42  2  0  0  0  0
 39 43  2  0  0  0  0
  4  6  1  0  0  0  0
 13 17  1  0  0  0  0
 14 16  1  0  0  0  0
 19 21  1  0  0  0  0
 28 30  1  0  0  0  0
 32 34  1  0  0  0  0
 37 42  1  0  0  0  0
 40 43  1  0  0  0  0
M  END
>  <S/N>
545

>  <Compound ID>
C_562

>  <PubChem CID>
155551194

>  <Isomeric SMILES>
CC1=C(C2=CC=CC=C2N1C)C(C3=CC=C(C=C3)C4=NN=C(O4)C5=CNC6=CC=CC=C65)C7=C(N(C8=CC=CC=C87)C)C

>  <IC50 (�M)>
20

>  <pIC50>
4.7

$$$$
C_563
Actelion Java MolfileCreator 1.0

 35 39  0  0  0  0  0  0  0  0999 V2000
    2.6456   -0.0933   -0.0000 S   0  0  0  0  0  0  0  0  0  0  0  0
    3.3147   -0.8364   -0.0000 C   0  0  0  0  0  0  0  0  0  0  0  0
    1.7321   -0.5000   -0.0000 C   0  0  0  0  0  0  0  0  0  0  0  0
    4.3092   -0.7319   -0.0000 O   0  0  0  0  0  0  0  0  0  0  0  0
    2.8147   -1.7024   -0.0000 N   0  0  0  0  0  0  0  0  0  0  0  0
    1.8366   -1.4945   -0.0000 C   0  0  0  0  0  0  0  0  0  0  0  0
    0.8660   -0.0000   -0.0000 C   0  0  0  0  0  0  0  0  0  0  0  0
    1.0934   -2.1637   -0.0000 O   0  0  0  0  0  0  0  0  0  0  0  0
    0.0000   -0.5000   -0.0000 C   0  0  0  0  0  0  0  0  0  0  0  0
   -0.8660    0.0000   -0.0000 C   0  0  0  0  0  0  0  0  0  0  0  0
   -0.0000   -1.5000   -0.0000 C   0  0  0  0  0  0  0  0  0  0  0  0
   -1.7321   -0.5000   -0.0000 C   0  0  0  0  0  0  0  0  0  0  0  0
   -0.8660   -2.0000   -0.0000 C   0  0  0  0  0  0  0  0  0  0  0  0
   -1.7321   -1.5000   -0.0000 C   0  0  0  0  0  0  0  0  0  0  0  0
   -2.5981   -2.0000   -0.0000 N   0  0  0  0  0  0  0  0  0  0  0  0
   -3.5116   -1.5933   -0.0000 C   0  0  0  0  0  0  0  0  0  0  0  0
   -2.7026   -2.9945   -0.0000 C   0  0  0  0  0  0  0  0  0  0  0  0
   -3.8206   -0.6422   -0.0000 N   0  0  0  0  0  0  0  0  0  0  0  0
   -4.1808   -2.3364   -0.0000 C   0  0  0  0  0  0  0  0  0  0  0  0
   -3.6808   -3.2024   -0.0000 C   0  0  0  0  0  0  0  0  0  0  0  0
   -4.7988   -0.4343   -0.0000 C   0  0  0  0  0  0  0  0  0  0  0  0
   -5.1589   -2.1285   -0.0000 C   0  0  0  0  0  0  0  0  0  0  0  0
   -5.4679   -1.1774   -0.0000 C   0  0  0  0  0  0  0  0  0  0  0  0
   -5.8280   -2.8716   -0.0000 N   0  0  0  0  0  0  0  0  0  0  0  0
   -5.5190   -3.8227   -0.0000 C   0  0  0  0  0  0  0  0  0  0  0  0
   -6.1881   -4.5658   -0.0000 C   0  0  0  0  0  0  0  0  0  0  0  0
   -4.5409   -4.0306   -0.0000 C   0  0  0  0  0  0  0  0  0  0  0  0
   -7.1663   -4.3579   -0.0000 O   0  0  0  0  0  0  0  0  0  0  0  0
   -5.8791   -5.5169   -0.0000 C   0  0  0  0  0  0  0  0  0  0  0  0
   -4.2318   -4.9817   -0.0000 C   0  0  0  0  0  0  0  0  0  0  0  0
   -7.8354   -5.1011   -0.0000 C   0  0  0  0  0  0  0  0  0  0  0  0
   -4.9010   -5.7248   -0.0000 C   0  0  0  0  0  0  0  0  0  0  0  0
   -7.0923   -5.7702   -0.0000 F   0  0  0  0  0  0  0  0  0  0  0  0
   -8.5046   -5.8442   -0.0000 F   0  0  0  0  0  0  0  0  0  0  0  0
   -8.5786   -4.4319   -0.0000 F   0  0  0  0  0  0  0  0  0  0  0  0
  1  2  1  0  0  0  0
  1  3  1  0  0  0  0
  2  4  2  0  0  0  0
  2  5  1  0  0  0  0
  3  6  1  0  0  0  0
  3  7  2  0  0  0  0
  6  8  2  0  0  0  0
  7  9  1  0  0  0  0
  9 10  2  0  0  0  0
  9 11  1  0  0  0  0
 10 12  1  0  0  0  0
 11 13  2  0  0  0  0
 12 14  2  0  0  0  0
 14 15  1  0  0  0  0
 15 16  1  0  0  0  0
 15 17  1  0  0  0  0
 16 18  2  0  0  0  0
 16 19  1  0  0  0  0
 17 20  2  0  0  0  0
 18 21  1  0  0  0  0
 19 22  2  0  0  0  0
 21 23  2  0  0  0  0
 22 24  1  0  0  0  0
 24 25  1  0  0  0  0
 25 26  2  0  0  0  0
 25 27  1  0  0  0  0
 26 28  1  0  0  0  0
 26 29  1  0  0  0  0
 27 30  2  0  0  0  0
 28 31  1  0  0  0  0
 29 32  2  0  0  0  0
 31 33  1  0  0  0  0
 31 34  1  0  0  0  0
 31 35  1  0  0  0  0
  5  6  1  0  0  0  0
 13 14  1  0  0  0  0
 19 20  1  0  0  0  0
 22 23  1  0  0  0  0
 30 32  1  0  0  0  0
M  END
>  <S/N>
546

>  <Compound ID>
C_563

>  <PubChem CID>
155551356

>  <Isomeric SMILES>
C1=CC=C(C(=C1)NC2=C3C=CN(C3=NC=C2)C4=CC=C(C=C4)/C=C/5\C(=O)NC(=O)S5)OC(F)(F)F

>  <IC50 (�M)>
0.55

>  <pIC50>
6.26

$$$$
C_564
Actelion Java MolfileCreator 1.0

 44 51  0  0  0  0  0  0  0  0999 V2000
    7.8655   -2.3899   -0.0000 O   0  0  0  0  0  0  0  0  0  0  0  0
    6.4952   -3.0000   -0.0000 C   0  0  0  0  0  0  0  0  0  0  0  0
    8.8692   -3.5046   -0.0000 C   0  0  0  0  0  0  0  0  0  0  0  0
    6.6520   -4.4918   -0.0000 N   0  0  0  0  0  0  0  0  0  0  0  0
    5.1962   -2.2500   -0.0000 C   0  0  0  0  0  0  0  0  0  0  0  0
    8.1192   -4.8037   -0.0000 N   0  0  0  0  0  0  0  0  0  0  0  0
   10.3610   -3.3478   -0.0000 C   0  0  0  0  0  0  0  0  0  0  0  0
    5.1962   -0.7500   -0.0000 C   0  0  0  0  0  0  0  0  0  0  0  0
    3.8971   -3.0000   -0.0000 C   0  0  0  0  0  0  0  0  0  0  0  0
   11.3647   -4.4625   -0.0000 C   0  0  0  0  0  0  0  0  0  0  0  0
   11.1110   -2.0488   -0.0000 C   0  0  0  0  0  0  0  0  0  0  0  0
    3.8971    0.0000   -0.0000 C   0  0  0  0  0  0  0  0  0  0  0  0
    2.5981   -2.2500   -0.0000 C   0  0  0  0  0  0  0  0  0  0  0  0
   12.7350   -3.8524   -0.0000 C   0  0  0  0  0  0  0  0  0  0  0  0
   11.2079   -5.9543   -0.0000 C   0  0  0  0  0  0  0  0  0  0  0  0
   12.5782   -2.3606   -0.0000 N   0  0  0  0  0  0  0  0  0  0  0  0
   10.5009   -0.6785   -0.0000 C   0  0  0  0  0  0  0  0  0  0  0  0
    2.5981   -0.7500   -0.0000 C   0  0  0  0  0  0  0  0  0  0  0  0
   13.9485   -4.7341   -0.0000 C   0  0  0  0  0  0  0  0  0  0  0  0
   12.4214   -6.8360   -0.0000 C   0  0  0  0  0  0  0  0  0  0  0  0
    1.2990   -0.0000   -0.0000 C   0  0  0  0  0  0  0  0  0  0  0  0
   13.7917   -6.2259   -0.0000 C   0  0  0  0  0  0  0  0  0  0  0  0
    1.2990    1.5000   -0.0000 C   0  0  0  0  0  0  0  0  0  0  0  0
    0.0000   -0.7500   -0.0000 C   0  0  0  0  0  0  0  0  0  0  0  0
    2.5126    2.3817   -0.0000 C   0  0  0  0  0  0  0  0  0  0  0  0
    0.0855    2.3817   -0.0000 C   0  0  0  0  0  0  0  0  0  0  0  0
   -1.3703   -0.1399   -0.0000 C   0  0  0  0  0  0  0  0  0  0  0  0
   -0.1568   -2.2418   -0.0000 C   0  0  0  0  0  0  0  0  0  0  0  0
    2.0490    3.8083   -0.0000 C   0  0  0  0  0  0  0  0  0  0  0  0
    3.9798    2.0698   -0.0000 C   0  0  0  0  0  0  0  0  0  0  0  0
    0.5490    3.8083   -0.0000 N   0  0  0  0  0  0  0  0  0  0  0  0
   -2.3740   -1.2546   -0.0000 C   0  0  0  0  0  0  0  0  0  0  0  0
   -1.8338    1.2867   -0.0000 C   0  0  0  0  0  0  0  0  0  0  0  0
   -1.6240   -2.5537   -0.0000 N   0  0  0  0  0  0  0  0  0  0  0  0
    3.0527    4.9230   -0.0000 C   0  0  0  0  0  0  0  0  0  0  0  0
    4.9835    3.1845   -0.0000 C   0  0  0  0  0  0  0  0  0  0  0  0
   -3.8412   -0.9427   -0.0000 C   0  0  0  0  0  0  0  0  0  0  0  0
   -3.3011    1.5986   -0.0000 C   0  0  0  0  0  0  0  0  0  0  0  0
    4.5200    4.6111   -0.0000 C   0  0  0  0  0  0  0  0  0  0  0  0
    6.4507    2.8727   -0.0000 C   0  0  0  0  0  0  0  0  0  0  0  0
   -4.3048    0.4838   -0.0000 C   0  0  0  0  0  0  0  0  0  0  0  0
   -3.7646    3.0251   -0.0000 C   0  0  0  0  0  0  0  0  0  0  0  0
    7.9179    2.5608   -0.0000 N   0  0  0  0  0  0  0  0  0  0  0  0
   -4.2281    4.4517   -0.0000 N   0  0  0  0  0  0  0  0  0  0  0  0
  1  2  1  0  0  0  0
  1  3  1  0  0  0  0
  2  4  2  0  0  0  0
  2  5  1  0  0  0  0
  3  6  2  0  0  0  0
  3  7  1  0  0  0  0
  5  8  2  0  0  0  0
  5  9  1  0  0  0  0
  7 10  1  0  0  0  0
  7 11  2  0  0  0  0
  8 12  1  0  0  0  0
  9 13  2  0  0  0  0
 10 14  2  0  0  0  0
 10 15  1  0  0  0  0
 11 16  1  0  0  0  0
 11 17  1  0  0  0  0
 12 18  2  0  0  0  0
 14 19  1  0  0  0  0
 15 20  2  0  0  0  0
 18 21  1  0  0  0  0
 19 22  2  0  0  0  0
 21 23  1  0  0  0  0
 21 24  1  0  0  0  0
 23 25  1  0  0  0  0
 23 26  2  0  0  0  0
 24 27  1  0  0  0  0
 24 28  2  0  0  0  0
 25 29  2  0  0  0  0
 25 30  1  0  0  0  0
 26 31  1  0  0  0  0
 27 32  2  0  0  0  0
 27 33  1  0  0  0  0
 28 34  1  0  0  0  0
 29 35  1  0  0  0  0
 30 36  2  0  0  0  0
 32 37  1  0  0  0  0
 33 38  2  0  0  0  0
 35 39  2  0  0  0  0
 36 40  1  0  0  0  0
 37 41  2  0  0  0  0
 38 42  1  0  0  0  0
 40 43  3  0  0  0  0
 42 44  3  0  0  0  0
  4  6  1  0  0  0  0
 13 18  1  0  0  0  0
 14 16  1  0  0  0  0
 20 22  1  0  0  0  0
 29 31  1  0  0  0  0
 32 34  1  0  0  0  0
 36 39  1  0  0  0  0
 38 41  1  0  0  0  0
M  END
>  <S/N>
547

>  <Compound ID>
C_564

>  <PubChem CID>
155551754

>  <Isomeric SMILES>
CC1=C(C2=CC=CC=C2N1)C3=NN=C(O3)C4=CC=C(C=C4)C(C5=CNC6=C5C=C(C=C6)C#N)C7=CNC8=C7C=C(C=C8)C#N

>  <IC50 (�M)>
20

>  <pIC50>
4.7

$$$$
C_565
Actelion Java MolfileCreator 1.0

 32 35  0  0  0  0  0  0  0  0999 V2000
    6.0622    1.0000   -0.0000 Br  0  0  0  0  0  0  0  0  0  0  0  0
    6.0622    0.0000   -0.0000 C   0  0  0  0  0  0  0  0  0  0  0  0
    5.1962   -0.5000   -0.0000 C   0  0  0  0  0  0  0  0  0  0  0  0
    6.9282   -0.5000   -0.0000 C   0  0  0  0  0  0  0  0  0  0  0  0
    4.3301   -0.0000   -0.0000 N   0  0  0  0  0  0  0  0  0  0  0  0
    5.1962   -1.5000   -0.0000 C   0  0  0  0  0  0  0  0  0  0  0  0
    6.9282   -1.5000   -0.0000 C   0  0  0  0  0  0  0  0  0  0  0  0
    3.4641   -0.5000   -0.0000 C   0  0  0  0  0  0  0  0  0  0  0  0
    6.0622   -2.0000   -0.0000 C   0  0  0  0  0  0  0  0  0  0  0  0
    3.4641   -1.5000   -0.0000 S   0  0  0  0  0  0  0  0  0  0  0  0
    2.5981   -0.0000   -0.0000 N   0  0  0  0  0  0  0  0  0  0  0  0
    1.7321   -0.5000   -0.0000 N   0  0  0  0  0  0  0  0  0  0  0  0
    0.8660   -0.0000   -0.0000 C   0  0  0  0  0  0  0  0  0  0  0  0
    0.8660    1.0000   -0.0000 O   0  0  0  0  0  0  0  0  0  0  0  0
    0.0000   -0.5000   -0.0000 C   0  0  0  0  0  0  0  0  0  0  0  0
   -0.8660    0.0000   -0.0000 C   0  0  0  0  0  0  0  0  0  0  0  0
   -0.0000   -1.5000   -0.0000 C   0  0  0  0  0  0  0  0  0  0  0  0
   -1.7321   -0.5000   -0.0000 C   0  0  0  0  0  0  0  0  0  0  0  0
   -0.8660   -2.0000   -0.0000 C   0  0  0  0  0  0  0  0  0  0  0  0
   -1.7321   -1.5000   -0.0000 C   0  0  0  0  0  0  0  0  0  0  0  0
   -2.5981   -2.0000   -0.0000 C   0  0  0  0  0  0  0  0  0  0  0  0
   -3.5116   -1.5933   -0.0000 O   0  0  0  0  0  0  0  0  0  0  0  0
   -2.7026   -2.9945   -0.0000 N   0  0  0  0  0  0  0  0  0  0  0  0
   -4.1808   -2.3364   -0.0000 C   0  0  0  0  0  0  0  0  0  0  0  0
   -3.6808   -3.2024   -0.0000 N   0  0  0  0  0  0  0  0  0  0  0  0
   -5.1753   -2.2319   -0.0000 C   0  0  0  0  0  0  0  0  0  0  0  0
   -5.5820   -1.3183   -0.0000 C   0  0  0  0  0  0  0  0  0  0  0  0
   -5.7631   -3.0409   -0.0000 C   0  0  0  0  0  0  0  0  0  0  0  0
   -4.9942   -0.5093   -0.0000 Cl  0  0  0  0  0  0  0  0  0  0  0  0
   -6.5765   -1.2138   -0.0000 C   0  0  0  0  0  0  0  0  0  0  0  0
   -6.7576   -2.9364   -0.0000 C   0  0  0  0  0  0  0  0  0  0  0  0
   -7.1643   -2.0228   -0.0000 C   0  0  0  0  0  0  0  0  0  0  0  0
  1  2  1  0  0  0  0
  2  3  2  0  0  0  0
  2  4  1  0  0  0  0
  3  5  1  0  0  0  0
  3  6  1  0  0  0  0
  4  7  2  0  0  0  0
  5  8  1  0  0  0  0
  6  9  2  0  0  0  0
  8 10  2  0  0  0  0
  8 11  1  0  0  0  0
 11 12  1  0  0  0  0
 12 13  1  0  0  0  0
 13 14  2  0  0  0  0
 13 15  1  0  0  0  0
 15 16  2  0  0  0  0
 15 17  1  0  0  0  0
 16 18  1  0  0  0  0
 17 19  2  0  0  0  0
 18 20  2  0  0  0  0
 20 21  1  0  0  0  0
 21 22  1  0  0  0  0
 21 23  2  0  0  0  0
 22 24  1  0  0  0  0
 23 25  1  0  0  0  0
 24 26  1  0  0  0  0
 26 27  2  0  0  0  0
 26 28  1  0  0  0  0
 27 29  1  0  0  0  0
 27 30  1  0  0  0  0
 28 31  2  0  0  0  0
 30 32  2  0  0  0  0
  7  9  1  0  0  0  0
 19 20  1  0  0  0  0
 24 25  2  0  0  0  0
 31 32  1  0  0  0  0
M  END
>  <S/N>
548

>  <Compound ID>
C_565

>  <PubChem CID>
155551811

>  <Isomeric SMILES>
C1=CC=C(C(=C1)C2=NN=C(O2)C3=CC=C(C=C3)C(=O)NNC(=S)NC4=CC=CC=C4Br)Cl

>  <IC50 (�M)>
0.4

>  <pIC50>
6.4

$$$$
C_566
Actelion Java MolfileCreator 1.0

 44 49  0  0  0  0  0  0  0  0999 V2000
   14.2894   -4.5000   -0.0000 O   0  0  0  0  0  0  0  0  0  0  0  0
   14.2894   -3.0000   -0.0000 C   0  0  0  0  0  0  0  0  0  0  0  0
   12.9904   -2.2500   -0.0000 O   0  0  0  0  0  0  0  0  0  0  0  0
   15.5885   -2.2500   -0.0000 C   0  0  0  0  0  0  0  0  0  0  0  0
   12.9904   -0.7500   -0.0000 C   0  0  0  0  0  0  0  0  0  0  0  0
   15.5885   -0.7500   -0.0000 C   0  0  0  0  0  0  0  0  0  0  0  0
   11.6914   -0.0000   -0.0000 C   0  0  0  0  0  0  0  0  0  0  0  0
   14.2894   -0.0000   -0.0000 C   0  0  0  0  0  0  0  0  0  0  0  0
   10.3923   -0.7500   -0.0000 O   0  0  0  0  0  0  0  0  0  0  0  0
   11.6914    1.5000   -0.0000 C   0  0  0  0  0  0  0  0  0  0  0  0
   14.2894    1.5000   -0.0000 C   0  0  0  0  0  0  0  0  0  0  0  0
    9.0933   -0.0000   -0.0000 C   0  0  0  0  0  0  0  0  0  0  0  0
   10.5766    2.5037   -0.0000 O   0  0  0  0  0  0  0  0  0  0  0  0
   12.9904    2.2500   -0.0000 C   0  0  0  0  0  0  0  0  0  0  0  0
   15.5885    2.2500   -0.0000 O   0  0  0  0  0  0  0  0  0  0  0  0
    7.7942   -0.7500   -0.0000 C   0  0  0  0  0  0  0  0  0  0  0  0
   11.1867    3.8740   -0.0000 C   0  0  0  0  0  0  0  0  0  0  0  0
   12.6785    3.7172   -0.0000 C   0  0  0  0  0  0  0  0  0  0  0  0
   16.8875    1.5000   -0.0000 C   0  0  0  0  0  0  0  0  0  0  0  0
    7.7942   -2.2500   -0.0000 O   0  0  0  0  0  0  0  0  0  0  0  0
    6.4952   -0.0000   -0.0000 C   0  0  0  0  0  0  0  0  0  0  0  0
    5.1962   -0.7500   -0.0000 O   0  0  0  0  0  0  0  0  0  0  0  0
    7.2452    1.2990   -0.0000 C   0  0  0  0  0  0  0  0  0  0  0  0
    5.7452    1.2990   -0.0000 C   0  0  0  0  0  0  0  0  0  0  0  0
    5.1962   -2.2500   -0.0000 C   0  0  0  0  0  0  0  0  0  0  0  0
    3.8971   -3.0000   -0.0000 C   0  0  0  0  0  0  0  0  0  0  0  0
    6.4952   -3.0000   -0.0000 C   0  0  0  0  0  0  0  0  0  0  0  0
    2.5981   -2.2500   -0.0000 C   0  0  0  0  0  0  0  0  0  0  0  0
    3.8971   -4.5000   -0.0000 C   0  0  0  0  0  0  0  0  0  0  0  0
    6.4952   -4.5000   -0.0000 O   0  0  0  0  0  0  0  0  0  0  0  0
    7.7942   -5.2500   -0.0000 C   0  0  0  0  0  0  0  0  0  0  0  0
    7.7942   -6.7500   -0.0000 C   0  0  0  0  0  0  0  0  0  0  0  0
    9.0933   -4.5000   -0.0000 C   0  0  0  0  0  0  0  0  0  0  0  0
    9.0933   -7.5000   -0.0000 C   0  0  0  0  0  0  0  0  0  0  0  0
    6.4952   -7.5000   -0.0000 C   0  0  0  0  0  0  0  0  0  0  0  0
   10.3923   -5.2500   -0.0000 C   0  0  0  0  0  0  0  0  0  0  0  0
    9.4051   -3.0328   -0.0000 C   0  0  0  0  0  0  0  0  0  0  0  0
    9.0933   -9.0000   -0.0000 O   0  0  0  0  0  0  0  0  0  0  0  0
   10.3923   -6.7500   -0.0000 C   0  0  0  0  0  0  0  0  0  0  0  0
    6.4952   -9.0000   -0.0000 C   0  0  0  0  0  0  0  0  0  0  0  0
   11.5070   -4.2463   -0.0000 O   0  0  0  0  0  0  0  0  0  0  0  0
   10.8969   -2.8760   -0.0000 C   0  0  0  0  0  0  0  0  0  0  0  0
    7.7942   -9.7500   -0.0000 C   0  0  0  0  0  0  0  0  0  0  0  0
    7.7942  -11.2500   -0.0000 O   0  0  0  0  0  0  0  0  0  0  0  0
  1  2  2  0  0  0  0
  2  3  1  0  0  0  0
  2  4  1  0  0  0  0
  3  5  1  0  0  0  0
  4  6  2  0  0  0  0
  5  7  2  0  0  0  0
  5  8  1  0  0  0  0
  7  9  1  0  0  0  0
  7 10  1  0  0  0  0
  8 11  2  0  0  0  0
  9 12  1  0  0  0  0
 10 13  1  0  0  0  0
 10 14  2  0  0  0  0
 11 15  1  0  0  0  0
 12 16  1  0  0  0  0
 13 17  1  0  0  0  0
 14 18  1  0  0  0  0
 15 19  1  0  0  0  0
 16 20  1  0  0  0  0
 16 21  1  0  0  0  0
 21 22  1  0  0  0  0
 21 23  1  0  0  0  0
 21 24  1  0  0  0  0
 22 25  1  0  0  0  0
 25 26  1  0  0  0  0
 25 27  1  0  0  0  0
 26 28  2  0  0  0  0
 26 29  1  0  0  0  0
 27 30  1  0  0  0  0
 30 31  1  0  0  0  0
 31 32  2  0  0  0  0
 31 33  1  0  0  0  0
 32 34  1  0  0  0  0
 32 35  1  0  0  0  0
 33 36  2  0  0  0  0
 33 37  1  0  0  0  0
 34 38  1  0  0  0  0
 34 39  2  0  0  0  0
 35 40  2  0  0  0  0
 36 41  1  0  0  0  0
 37 42  2  0  0  0  0
 38 43  1  0  0  0  0
 43 44  2  0  0  0  0
  6  8  1  0  0  0  0
 11 14  1  0  0  0  0
 17 18  2  0  0  0  0
 36 39  1  0  0  0  0
 40 43  1  0  0  0  0
 41 42  1  0  0  0  0
M  END
>  <S/N>
549

>  <Compound ID>
C_566

>  <PubChem CID>
155551838

>  <Isomeric SMILES>
CC(=C)C(COC1=C2C=CC(=O)OC2=CC3=C1C=CO3)OC(C)(C)C(COC4=C5C(=C(C6=C4OC(=O)C=C6)OC)C=CO5)O

>  <IC50 (�M)>
8.8

>  <pIC50>
5.06

$$$$
C_567
Actelion Java MolfileCreator 1.0

 34 37  0  0  1  0  0  0  0  0999 V2000
    8.6603   -3.5000   -0.0000 F   0  0  0  0  0  0  0  0  0  0  0  0
    7.7942   -3.0000   -0.0000 C   0  0  0  0  0  0  0  0  0  0  0  0
    7.7942   -2.0000   -0.0000 C   0  0  0  0  0  0  0  0  0  0  0  0
    6.9282   -3.5000   -0.0000 C   0  0  0  0  0  0  0  0  0  0  0  0
    6.9282   -1.5000   -0.0000 C   0  0  0  0  0  0  0  0  0  0  0  0
    6.0622   -3.0000   -0.0000 C   0  0  0  0  0  0  0  0  0  0  0  0
    6.0622   -2.0000   -0.0000 C   0  0  0  0  0  0  0  0  0  0  0  0
    5.1962   -1.5000   -0.0000 C   0  0  0  0  0  0  0  0  0  0  0  0
    5.1962   -0.5000   -0.0000 C   0  0  0  0  0  0  0  0  0  0  0  0
    4.3301   -2.0000   -0.0000 C   0  0  0  0  0  0  0  0  0  0  0  0
    4.3301    0.0000   -0.0000 C   0  0  0  0  0  0  0  0  0  0  0  0
    3.4641   -1.5000   -0.0000 C   0  0  0  0  0  0  0  0  0  0  0  0
    4.3301    1.0000   -0.0000 O   0  0  0  0  0  0  0  0  0  0  0  0
    3.4641   -0.5000   -0.0000 C   0  0  0  0  0  0  0  0  0  0  0  0
    3.4641    1.5000   -0.0000 C   0  0  0  0  0  0  0  0  0  0  0  0
    2.5981   -0.0000   -0.0000 O   0  0  0  0  0  0  0  0  0  0  0  0
    1.7321   -0.5000   -0.0000 C   0  0  0  0  0  0  0  0  0  0  0  0
    0.8660   -0.0000   -0.0000 C   0  0  0  0  0  0  0  0  0  0  0  0
    1.7321   -1.5000   -0.0000 C   0  0  0  0  0  0  0  0  0  0  0  0
    0.0000   -0.5000   -0.0000 N   0  0  0  0  0  0  0  0  0  0  0  0
   -0.9135   -0.0933   -0.0000 N   0  0  0  0  0  0  0  0  0  0  0  0
   -0.1045   -1.4945   -0.0000 C   0  0  0  0  0  0  0  0  0  0  0  0
   -1.5827   -0.8364   -0.0000 N   0  0  0  0  0  0  0  0  0  0  0  0
   -1.0827   -1.7024   -0.0000 C   0  0  0  0  0  0  0  0  0  0  0  0
   -1.4894   -2.6160   -0.0000 C   0  0  0  0  0  0  0  0  0  0  0  0
   -2.4839   -2.7205   -0.0000 C   0  0  0  0  0  0  0  0  0  0  0  0
   -0.9016   -3.4250   -0.0000 C   0  0  0  0  0  0  0  0  0  0  0  0
   -2.8907   -3.6341   -0.0000 C   0  0  0  0  0  0  0  0  0  0  0  0
   -1.3084   -4.3385   -0.0000 C   0  0  0  0  0  0  0  0  0  0  0  0
   -2.3029   -4.4431   -0.0000 C   0  0  0  0  0  0  0  0  0  0  0  0
   -2.7096   -5.3566   -0.0000 C   0  0  0  0  0  0  0  0  0  0  0  0
   -1.7961   -5.7634   -0.0000 F   0  0  0  0  0  0  0  0  0  0  0  0
   -3.1164   -6.2702   -0.0000 F   0  0  0  0  0  0  0  0  0  0  0  0
   -3.6232   -4.9499   -0.0000 F   0  0  0  0  0  0  0  0  0  0  0  0
  1  2  1  0  0  0  0
  2  3  2  0  0  0  0
  2  4  1  0  0  0  0
  3  5  1  0  0  0  0
  4  6  2  0  0  0  0
  5  7  2  0  0  0  0
  7  8  1  0  0  0  0
  8  9  2  0  0  0  0
  8 10  1  0  0  0  0
  9 11  1  0  0  0  0
 10 12  2  0  0  0  0
 11 13  1  0  0  0  0
 11 14  2  0  0  0  0
 13 15  1  0  0  0  0
 14 16  1  0  0  0  0
 16 17  1  0  0  0  0
 17 18  1  0  0  0  0
 17 19  1  6  0  0  0
 18 20  1  0  0  0  0
 20 21  1  0  0  0  0
 20 22  1  0  0  0  0
 21 23  2  0  0  0  0
 22 24  2  0  0  0  0
 24 25  1  0  0  0  0
 25 26  2  0  0  0  0
 25 27  1  0  0  0  0
 26 28  1  0  0  0  0
 27 29  2  0  0  0  0
 28 30  2  0  0  0  0
 30 31  1  0  0  0  0
 31 32  1  0  0  0  0
 31 33  1  0  0  0  0
 31 34  1  0  0  0  0
  6  7  1  0  0  0  0
 12 14  1  0  0  0  0
 23 24  1  0  0  0  0
 29 30  1  0  0  0  0
M  END
>  <S/N>
550

>  <Compound ID>
C_567

>  <PubChem CID>
155552138

>  <Isomeric SMILES>
C[C@H](CN1C=C(N=N1)C2=CC=C(C=C2)C(F)(F)F)OC3=C(C=C(C=C3)C4=CC=C(C=C4)F)OC

>  <IC50 (�M)>
14

>  <pIC50>
4.85

$$$$
C_568
Actelion Java MolfileCreator 1.0

 27 30  0  0  0  0  0  0  0  0999 V2000
    6.5110   -3.0073   -0.0000 Cl  0  0  0  0  0  0  0  0  0  0  0  0
    5.2088   -2.2555   -0.0000 C   0  0  0  0  0  0  0  0  0  0  0  0
    5.2088   -0.7518   -0.0000 C   0  0  0  0  0  0  0  0  0  0  0  0
    3.9066   -3.0073   -0.0000 C   0  0  0  0  0  0  0  0  0  0  0  0
    3.9066    0.0000   -0.0000 C   0  0  0  0  0  0  0  0  0  0  0  0
    2.6044   -2.2555   -0.0000 C   0  0  0  0  0  0  0  0  0  0  0  0
    2.6044   -0.7518   -0.0000 C   0  0  0  0  0  0  0  0  0  0  0  0
    1.3022   -0.0000   -0.0000 N   0  0  0  0  0  0  0  0  0  0  0  0
    0.0000   -0.7518   -0.0000 C   0  0  0  0  0  0  0  0  0  0  0  0
   -1.3737   -0.1402   -0.0000 S   0  0  0  0  0  0  0  0  0  0  0  0
   -0.1572   -2.2472   -0.0000 N   0  0  0  0  0  0  0  0  0  0  0  0
   -2.3798   -1.2577   -0.0000 C   0  0  0  0  0  0  0  0  0  0  0  0
    0.9603   -3.2534   -0.0000 N   0  0  0  0  0  0  0  0  0  0  0  0
   -1.6280   -2.5599   -0.0000 C   0  0  0  0  0  0  0  0  0  0  0  0
    0.6476   -4.7242   -0.0000 C   0  0  0  0  0  0  0  0  0  0  0  0
   -2.2396   -3.9335   -0.0000 C   0  0  0  0  0  0  0  0  0  0  0  0
    1.7651   -5.7303   -0.0000 C   0  0  0  0  0  0  0  0  0  0  0  0
   -0.6940   -5.1948   -0.0000 C   0  0  0  0  0  0  0  0  0  0  0  0
   -3.7350   -4.0907   -0.0000 C   0  0  0  0  0  0  0  0  0  0  0  0
   -1.3999   -5.1470   -0.0000 C   0  0  0  0  0  0  0  0  0  0  0  0
    1.4524   -7.2011   -0.0000 C   0  0  0  0  0  0  0  0  0  0  0  0
   -1.0951   -6.6596   -0.0000 C   0  0  0  0  0  0  0  0  0  0  0  0
   -4.3466   -5.4643   -0.0000 C   0  0  0  0  0  0  0  0  0  0  0  0
   -1.9673   -6.5236   -0.0000 C   0  0  0  0  0  0  0  0  0  0  0  0
    0.0224   -7.6657   -0.0000 C   0  0  0  0  0  0  0  0  0  0  0  0
   -3.4627   -6.6808   -0.0000 C   0  0  0  0  0  0  0  0  0  0  0  0
   -4.0743   -8.0545   -0.0000 Cl  0  0  0  0  0  0  0  0  0  0  0  0
  1  2  1  0  0  0  0
  2  3  2  0  0  0  0
  2  4  1  0  0  0  0
  3  5  1  0  0  0  0
  4  6  2  0  0  0  0
  5  7  2  0  0  0  0
  7  8  1  0  0  0  0
  8  9  2  3  0  0  0
  9 10  1  0  0  0  0
  9 11  1  0  0  0  0
 10 12  1  0  0  0  0
 11 13  1  0  0  0  0
 11 14  1  0  0  0  0
 13 15  1  0  0  0  0
 14 16  1  0  0  0  0
 15 17  2  0  0  0  0
 15 18  1  0  0  0  0
 16 19  2  0  0  0  0
 16 20  1  0  0  0  0
 17 21  1  0  0  0  0
 18 22  2  0  0  0  0
 19 23  1  0  0  0  0
 20 24  2  0  0  0  0
 21 25  2  0  0  0  0
 23 26  2  0  0  0  0
 26 27  1  0  0  0  0
  6  7  1  0  0  0  0
 12 14  2  0  0  0  0
 22 25  1  0  0  0  0
 24 26  1  0  0  0  0
M  END
>  <S/N>
551

>  <Compound ID>
C_568

>  <PubChem CID>
155552221

>  <Isomeric SMILES>
C1=CC=C(C=C1)NN2C(=CSC2=NC3=CC=C(C=C3)Cl)C4=CC=C(C=C4)Cl

>  <IC50 (�M)>
9.6

>  <pIC50>
5.02

$$$$
C_569
Actelion Java MolfileCreator 1.0

 27 30  0  0  0  0  0  0  0  0999 V2000
    2.7026    0.9945   -0.0000 S   0  0  0  0  0  0  0  0  0  0  0  0
    2.5981   -0.0000   -0.0000 C   0  0  0  0  0  0  0  0  0  0  0  0
    3.6808    1.2024   -0.0000 C   0  0  0  0  0  0  0  0  0  0  0  0
    1.7321   -0.5000   -0.0000 S   0  0  0  0  0  0  0  0  0  0  0  0
    3.5116   -0.4067   -0.0000 N   0  0  0  0  0  0  0  0  0  0  0  0
    4.1808    0.3364   -0.0000 C   0  0  0  0  0  0  0  0  0  0  0  0
    4.1808    2.0685   -0.0000 C   0  0  0  0  0  0  0  0  0  0  0  0
    0.8660   -0.0000   -0.0000 C   0  0  0  0  0  0  0  0  0  0  0  0
    5.1808    0.3364   -0.0000 C   0  0  0  0  0  0  0  0  0  0  0  0
    5.1808    2.0685   -0.0000 C   0  0  0  0  0  0  0  0  0  0  0  0
    0.0000   -0.5000   -0.0000 C   0  0  0  0  0  0  0  0  0  0  0  0
    5.6808    1.2024   -0.0000 C   0  0  0  0  0  0  0  0  0  0  0  0
   -0.9135   -0.0933   -0.0000 N   0  0  0  0  0  0  0  0  0  0  0  0
   -0.1045   -1.4945   -0.0000 C   0  0  0  0  0  0  0  0  0  0  0  0
   -1.5827   -0.8364   -0.0000 N   0  0  0  0  0  0  0  0  0  0  0  0
   -1.0827   -1.7024   -0.0000 N   0  0  0  0  0  0  0  0  0  0  0  0
   -1.4894   -2.6160   -0.0000 C   0  0  0  0  0  0  0  0  0  0  0  0
   -0.9016   -3.4250   -0.0000 C   0  0  0  0  0  0  0  0  0  0  0  0
   -1.3084   -4.3385   -0.0000 C   0  0  0  0  0  0  0  0  0  0  0  0
    0.0929   -3.3205   -0.0000 C   0  0  0  0  0  0  0  0  0  0  0  0
   -0.7206   -5.1476   -0.0000 C   0  0  0  0  0  0  0  0  0  0  0  0
    0.6807   -4.1295   -0.0000 C   0  0  0  0  0  0  0  0  0  0  0  0
    0.2739   -5.0430   -0.0000 C   0  0  0  0  0  0  0  0  0  0  0  0
    0.8617   -5.8520   -0.0000 C   0  0  0  0  0  0  0  0  0  0  0  0
    1.6707   -5.2643   -0.0000 C   0  0  0  0  0  0  0  0  0  0  0  0
    1.4495   -6.6611   -0.0000 C   0  0  0  0  0  0  0  0  0  0  0  0
    0.0527   -6.4398   -0.0000 C   0  0  0  0  0  0  0  0  0  0  0  0
  1  2  1  0  0  0  0
  1  3  1  0  0  0  0
  2  4  1  0  0  0  0
  2  5  2  0  0  0  0
  3  6  2  0  0  0  0
  3  7  1  0  0  0  0
  4  8  1  0  0  0  0
  6  9  1  0  0  0  0
  7 10  2  0  0  0  0
  8 11  1  0  0  0  0
  9 12  2  0  0  0  0
 11 13  1  0  0  0  0
 11 14  2  0  0  0  0
 13 15  2  0  0  0  0
 14 16  1  0  0  0  0
 16 17  1  0  0  0  0
 17 18  1  0  0  0  0
 18 19  2  0  0  0  0
 18 20  1  0  0  0  0
 19 21  1  0  0  0  0
 20 22  2  0  0  0  0
 21 23  2  0  0  0  0
 23 24  1  0  0  0  0
 24 25  1  0  0  0  0
 24 26  1  0  0  0  0
 24 27  1  0  0  0  0
  5  6  1  0  0  0  0
 10 12  1  0  0  0  0
 15 16  1  0  0  0  0
 22 23  1  0  0  0  0
M  END
>  <S/N>
552

>  <Compound ID>
C_569

>  <PubChem CID>
155552278

>  <Isomeric SMILES>
CC(C)(C)C1=CC=C(C=C1)CN2C=C(N=N2)CSC3=NC4=CC=CC=C4S3

>  <IC50 (�M)>
20

>  <pIC50>
4.7

$$$$
C_570
Actelion Java MolfileCreator 1.0

 52 61  0  0  0  0  0  0  0  0999 V2000
    7.8857   -2.3960   -0.0000 O   0  0  0  0  0  0  0  0  0  0  0  0
    6.5119   -3.0077   -0.0000 C   0  0  0  0  0  0  0  0  0  0  0  0
    8.8920   -3.5136   -0.0000 C   0  0  0  0  0  0  0  0  0  0  0  0
    6.6691   -4.5033   -0.0000 N   0  0  0  0  0  0  0  0  0  0  0  0
    5.2095   -2.2558   -0.0000 C   0  0  0  0  0  0  0  0  0  0  0  0
    8.1401   -4.8160   -0.0000 N   0  0  0  0  0  0  0  0  0  0  0  0
   10.3876   -3.3564   -0.0000 C   0  0  0  0  0  0  0  0  0  0  0  0
    5.2095   -0.7519   -0.0000 C   0  0  0  0  0  0  0  0  0  0  0  0
    3.9071   -3.0077   -0.0000 C   0  0  0  0  0  0  0  0  0  0  0  0
   11.3939   -4.4740   -0.0000 C   0  0  0  0  0  0  0  0  0  0  0  0
   11.1395   -2.0540   -0.0000 C   0  0  0  0  0  0  0  0  0  0  0  0
    3.8798   -0.0349   -0.0000 C   0  0  0  0  0  0  0  0  0  0  0  0
    2.6213   -2.2147   -0.0000 C   0  0  0  0  0  0  0  0  0  0  0  0
   12.7677   -3.8623   -0.0000 C   0  0  0  0  0  0  0  0  0  0  0  0
   11.2367   -5.9696   -0.0000 C   0  0  0  0  0  0  0  0  0  0  0  0
   12.6105   -2.3667   -0.0000 N   0  0  0  0  0  0  0  0  0  0  0  0
    2.6047   -0.7519   -0.0000 C   0  0  0  0  0  0  0  0  0  0  0  0
   13.9843   -4.7463   -0.0000 C   0  0  0  0  0  0  0  0  0  0  0  0
   12.4533   -6.8536   -0.0000 C   0  0  0  0  0  0  0  0  0  0  0  0
   13.7281   -1.3604   -0.0000 C   0  0  0  0  0  0  0  0  0  0  0  0
    1.3024   -0.0000   -0.0000 C   0  0  0  0  0  0  0  0  0  0  0  0
   13.8272   -6.2419   -0.0000 C   0  0  0  0  0  0  0  0  0  0  0  0
    1.3024    1.5039   -0.0000 C   0  0  0  0  0  0  0  0  0  0  0  0
    0.0000   -0.7519   -0.0000 C   0  0  0  0  0  0  0  0  0  0  0  0
    2.5190    2.3878   -0.0000 C   0  0  0  0  0  0  0  0  0  0  0  0
    0.0857    2.3878   -0.0000 C   0  0  0  0  0  0  0  0  0  0  0  0
   -0.1572   -2.2475   -0.0000 C   0  0  0  0  0  0  0  0  0  0  0  0
   -1.3738   -0.1403   -0.0000 C   0  0  0  0  0  0  0  0  0  0  0  0
    2.0543    3.8180   -0.0000 N   0  0  0  0  0  0  0  0  0  0  0  0
    3.9493    1.9231   -0.0000 C   0  0  0  0  0  0  0  0  0  0  0  0
    0.5504    3.8180   -0.0000 C   0  0  0  0  0  0  0  0  0  0  0  0
   -1.3853    2.0751   -0.0000 C   0  0  0  0  0  0  0  0  0  0  0  0
   -1.6282   -2.5602   -0.0000 N   0  0  0  0  0  0  0  0  0  0  0  0
    0.9604   -3.2538   -0.0000 C   0  0  0  0  0  0  0  0  0  0  0  0
   -2.3801   -1.2578   -0.0000 C   0  0  0  0  0  0  0  0  0  0  0  0
   -1.8386    1.2900   -0.0000 C   0  0  0  0  0  0  0  0  0  0  0  0
    4.3166    0.5218   -0.0000 C   0  0  0  0  0  0  0  0  0  0  0  0
    5.0668    2.9294   -0.0000 C   0  0  0  0  0  0  0  0  0  0  0  0
   -0.4558    4.9356   -0.0000 C   0  0  0  0  0  0  0  0  0  0  0  0
   -2.3915    3.1927   -0.0000 C   0  0  0  0  0  0  0  0  0  0  0  0
    2.3576   -2.8713   -0.0000 C   0  0  0  0  0  0  0  0  0  0  0  0
    0.6477   -4.7248   -0.0000 C   0  0  0  0  0  0  0  0  0  0  0  0
   -3.8511   -0.9452   -0.0000 C   0  0  0  0  0  0  0  0  0  0  0  0
   -3.3095    1.6027   -0.0000 C   0  0  0  0  0  0  0  0  0  0  0  0
    5.6922   -0.0126   -0.0000 C   0  0  0  0  0  0  0  0  0  0  0  0
    6.4971    2.4646   -0.0000 C   0  0  0  0  0  0  0  0  0  0  0  0
   -1.9268    4.6230   -0.0000 C   0  0  0  0  0  0  0  0  0  0  0  0
    3.5082   -3.7954   -0.0000 C   0  0  0  0  0  0  0  0  0  0  0  0
    1.7653   -5.7311   -0.0000 C   0  0  0  0  0  0  0  0  0  0  0  0
   -4.3158    0.4851   -0.0000 C   0  0  0  0  0  0  0  0  0  0  0  0
    6.8098    0.9936   -0.0000 C   0  0  0  0  0  0  0  0  0  0  0  0
    3.1955   -5.2664   -0.0000 C   0  0  0  0  0  0  0  0  0  0  0  0
  1  2  1  0  0  0  0
  1  3  1  0  0  0  0
  2  4  2  0  0  0  0
  2  5  1  0  0  0  0
  3  6  2  0  0  0  0
  3  7  1  0  0  0  0
  5  8  2  0  0  0  0
  5  9  1  0  0  0  0
  7 10  1  0  0  0  0
  7 11  2  0  0  0  0
  8 12  1  0  0  0  0
  9 13  2  0  0  0  0
 10 14  2  0  0  0  0
 10 15  1  0  0  0  0
 11 16  1  0  0  0  0
 12 17  2  0  0  0  0
 14 18  1  0  0  0  0
 15 19  2  0  0  0  0
 16 20  1  0  0  0  0
 17 21  1  0  0  0  0
 18 22  2  0  0  0  0
 21 23  1  0  0  0  0
 21 24  1  0  0  0  0
 23 25  2  0  0  0  0
 23 26  1  0  0  0  0
 24 27  2  0  0  0  0
 24 28  1  0  0  0  0
 25 29  1  0  0  0  0
 25 30  1  0  0  0  0
 26 31  2  0  0  0  0
 26 32  1  0  0  0  0
 27 33  1  0  0  0  0
 27 34  1  0  0  0  0
 28 35  2  0  0  0  0
 28 36  1  0  0  0  0
 30 37  2  0  0  0  0
 30 38  1  0  0  0  0
 31 39  1  0  0  0  0
 32 40  2  0  0  0  0
 34 41  2  0  0  0  0
 34 42  1  0  0  0  0
 35 43  1  0  0  0  0
 36 44  2  0  0  0  0
 37 45  1  0  0  0  0
 38 46  2  0  0  0  0
 39 47  2  0  0  0  0
 41 48  1  0  0  0  0
 42 49  2  0  0  0  0
 43 50  2  0  0  0  0
 45 51  2  0  0  0  0
 48 52  2  0  0  0  0
  4  6  1  0  0  0  0
 13 17  1  0  0  0  0
 14 16  1  0  0  0  0
 19 22  1  0  0  0  0
 29 31  1  0  0  0  0
 33 35  1  0  0  0  0
 40 47  1  0  0  0  0
 44 50  1  0  0  0  0
 46 51  1  0  0  0  0
 49 52  1  0  0  0  0
M  END
>  <S/N>
553

>  <Compound ID>
C_570

>  <PubChem CID>
155552319

>  <Isomeric SMILES>
CN1C=C(C2=CC=CC=C21)C3=NN=C(O3)C4=CC=C(C=C4)C(C5=C(NC6=CC=CC=C65)C7=CC=CC=C7)C8=C(NC9=CC=CC=C98)C1=CC=CC=C1

>  <IC50 (�M)>
20

>  <pIC50>
4.7

$$$$
C_571
Actelion Java MolfileCreator 1.0

 25 27  0  0  0  0  0  0  0  0999 V2000
   -0.4062    5.5235   -0.0000 Cl  0  0  0  0  0  0  0  0  0  0  0  0
    0.7119    4.5167   -0.0000 C   0  0  0  0  0  0  0  0  0  0  0  0
    0.3991    3.0450   -0.0000 C   0  0  0  0  0  0  0  0  0  0  0  0
    2.1429    4.9817   -0.0000 C   0  0  0  0  0  0  0  0  0  0  0  0
   -1.0319    2.5800   -0.0000 Cl  0  0  0  0  0  0  0  0  0  0  0  0
    1.5338    2.0793   -0.0000 C   0  0  0  0  0  0  0  0  0  0  0  0
    3.2611    3.9749   -0.0000 C   0  0  0  0  0  0  0  0  0  0  0  0
    2.9482    2.5032   -0.0000 C   0  0  0  0  0  0  0  0  0  0  0  0
    4.6920    4.4398   -0.0000 Cl  0  0  0  0  0  0  0  0  0  0  0  0
    4.0664    1.4964   -0.0000 N   0  0  0  0  0  0  0  0  0  0  0  0
    3.9091   -0.0000   -0.0000 C   0  0  0  0  0  0  0  0  0  0  0  0
    5.5381    1.8092   -0.0000 C   0  0  0  0  0  0  0  0  0  0  0  0
    5.2836   -0.6120   -0.0000 S   0  0  0  0  0  0  0  0  0  0  0  0
    2.6061   -0.7523   -0.0000 N   0  0  0  0  0  0  0  0  0  0  0  0
    6.2904    0.5062   -0.0000 C   0  0  0  0  0  0  0  0  0  0  0  0
    6.1501    3.1837   -0.0000 C   0  0  0  0  0  0  0  0  0  0  0  0
    1.3030   -0.0000   -0.0000 C   0  0  0  0  0  0  0  0  0  0  0  0
    1.2700    1.4223   -0.0000 O   0  0  0  0  0  0  0  0  0  0  0  0
   -0.0000   -0.7523   -0.0000 C   0  0  0  0  0  0  0  0  0  0  0  0
    0.0000   -2.2569   -0.0000 C   0  0  0  0  0  0  0  0  0  0  0  0
   -1.3030   -0.0000   -0.0000 C   0  0  0  0  0  0  0  0  0  0  0  0
    1.3030   -3.0092   -0.0000 Cl  0  0  0  0  0  0  0  0  0  0  0  0
   -1.3030   -3.0092   -0.0000 C   0  0  0  0  0  0  0  0  0  0  0  0
   -2.6061   -0.7523   -0.0000 C   0  0  0  0  0  0  0  0  0  0  0  0
   -2.6061   -2.2569   -0.0000 C   0  0  0  0  0  0  0  0  0  0  0  0
  1  2  1  0  0  0  0
  2  3  2  0  0  0  0
  2  4  1  0  0  0  0
  3  5  1  0  0  0  0
  3  6  1  0  0  0  0
  4  7  2  0  0  0  0
  6  8  2  0  0  0  0
  7  9  1  0  0  0  0
  8 10  1  0  0  0  0
 10 11  1  0  0  0  0
 10 12  1  0  0  0  0
 11 13  1  0  0  0  0
 11 14  2  3  0  0  0
 12 15  2  0  0  0  0
 12 16  1  0  0  0  0
 14 17  1  0  0  0  0
 17 18  2  0  0  0  0
 17 19  1  0  0  0  0
 19 20  2  0  0  0  0
 19 21  1  0  0  0  0
 20 22  1  0  0  0  0
 20 23  1  0  0  0  0
 21 24  2  0  0  0  0
 23 25  2  0  0  0  0
  7  8  1  0  0  0  0
 13 15  1  0  0  0  0
 24 25  1  0  0  0  0
M  END
>  <S/N>
554

>  <Compound ID>
C_571

>  <PubChem CID>
155552510

>  <Isomeric SMILES>
CC1=CSC(=NC(=O)C2=CC=CC=C2Cl)N1C3=CC(=C(C=C3Cl)Cl)Cl

>  <IC50 (�M)>
0.1

>  <pIC50>
7

$$$$
C_572
Actelion Java MolfileCreator 1.0

 33 36  0  0  0  0  0  0  0  0999 V2000
    6.0622   -3.0000   -0.0000 Cl  0  0  0  0  0  0  0  0  0  0  0  0
    6.0622   -2.0000   -0.0000 C   0  0  0  0  0  0  0  0  0  0  0  0
    6.9282   -1.5000   -0.0000 C   0  0  0  0  0  0  0  0  0  0  0  0
    5.1962   -1.5000   -0.0000 C   0  0  0  0  0  0  0  0  0  0  0  0
    7.7942   -2.0000   -0.0000 Cl  0  0  0  0  0  0  0  0  0  0  0  0
    6.9282   -0.5000   -0.0000 C   0  0  0  0  0  0  0  0  0  0  0  0
    5.1962   -0.5000   -0.0000 C   0  0  0  0  0  0  0  0  0  0  0  0
    6.0622   -0.0000   -0.0000 C   0  0  0  0  0  0  0  0  0  0  0  0
    4.3301   -0.0000   -0.0000 N   0  0  0  0  0  0  0  0  0  0  0  0
    3.4641   -0.5000   -0.0000 C   0  0  0  0  0  0  0  0  0  0  0  0
    3.4641   -1.5000   -0.0000 S   0  0  0  0  0  0  0  0  0  0  0  0
    2.5981   -0.0000   -0.0000 N   0  0  0  0  0  0  0  0  0  0  0  0
    1.7321   -0.5000   -0.0000 N   0  0  0  0  0  0  0  0  0  0  0  0
    0.8660   -0.0000   -0.0000 C   0  0  0  0  0  0  0  0  0  0  0  0
    0.8660    1.0000   -0.0000 O   0  0  0  0  0  0  0  0  0  0  0  0
    0.0000   -0.5000   -0.0000 C   0  0  0  0  0  0  0  0  0  0  0  0
   -0.8660    0.0000   -0.0000 C   0  0  0  0  0  0  0  0  0  0  0  0
   -0.0000   -1.5000   -0.0000 C   0  0  0  0  0  0  0  0  0  0  0  0
   -1.7321   -0.5000   -0.0000 C   0  0  0  0  0  0  0  0  0  0  0  0
   -0.8660   -2.0000   -0.0000 C   0  0  0  0  0  0  0  0  0  0  0  0
   -1.7321   -1.5000   -0.0000 C   0  0  0  0  0  0  0  0  0  0  0  0
   -2.5981   -2.0000   -0.0000 C   0  0  0  0  0  0  0  0  0  0  0  0
   -3.5116   -1.5933   -0.0000 O   0  0  0  0  0  0  0  0  0  0  0  0
   -2.7026   -2.9945   -0.0000 N   0  0  0  0  0  0  0  0  0  0  0  0
   -4.1808   -2.3364   -0.0000 C   0  0  0  0  0  0  0  0  0  0  0  0
   -3.6808   -3.2024   -0.0000 N   0  0  0  0  0  0  0  0  0  0  0  0
   -5.1753   -2.2319   -0.0000 C   0  0  0  0  0  0  0  0  0  0  0  0
   -5.5820   -1.3183   -0.0000 C   0  0  0  0  0  0  0  0  0  0  0  0
   -5.7631   -3.0409   -0.0000 C   0  0  0  0  0  0  0  0  0  0  0  0
   -4.9942   -0.5093   -0.0000 Cl  0  0  0  0  0  0  0  0  0  0  0  0
   -6.5765   -1.2138   -0.0000 C   0  0  0  0  0  0  0  0  0  0  0  0
   -6.7576   -2.9364   -0.0000 C   0  0  0  0  0  0  0  0  0  0  0  0
   -7.1643   -2.0228   -0.0000 C   0  0  0  0  0  0  0  0  0  0  0  0
  1  2  1  0  0  0  0
  2  3  2  0  0  0  0
  2  4  1  0  0  0  0
  3  5  1  0  0  0  0
  3  6  1  0  0  0  0
  4  7  2  0  0  0  0
  6  8  2  0  0  0  0
  7  9  1  0  0  0  0
  9 10  1  0  0  0  0
 10 11  2  0  0  0  0
 10 12  1  0  0  0  0
 12 13  1  0  0  0  0
 13 14  1  0  0  0  0
 14 15  2  0  0  0  0
 14 16  1  0  0  0  0
 16 17  2  0  0  0  0
 16 18  1  0  0  0  0
 17 19  1  0  0  0  0
 18 20  2  0  0  0  0
 19 21  2  0  0  0  0
 21 22  1  0  0  0  0
 22 23  1  0  0  0  0
 22 24  2  0  0  0  0
 23 25  1  0  0  0  0
 24 26  1  0  0  0  0
 25 27  1  0  0  0  0
 27 28  2  0  0  0  0
 27 29  1  0  0  0  0
 28 30  1  0  0  0  0
 28 31  1  0  0  0  0
 29 32  2  0  0  0  0
 31 33  2  0  0  0  0
  7  8  1  0  0  0  0
 20 21  1  0  0  0  0
 25 26  2  0  0  0  0
 32 33  1  0  0  0  0
M  END
>  <S/N>
555

>  <Compound ID>
C_572

>  <PubChem CID>
155552582

>  <Isomeric SMILES>
C1=CC=C(C(=C1)C2=NN=C(O2)C3=CC=C(C=C3)C(=O)NNC(=S)NC4=CC(=C(C=C4)Cl)Cl)Cl

>  <IC50 (�M)>
0.4

>  <pIC50>
6.4

$$$$
C_573
Actelion Java MolfileCreator 1.0

 23 26  0  0  0  0  0  0  0  0999 V2000
    2.6456   -0.0933   -0.0000 S   0  0  0  0  0  0  0  0  0  0  0  0
    3.3147   -0.8364   -0.0000 C   0  0  0  0  0  0  0  0  0  0  0  0
    1.7321   -0.5000   -0.0000 C   0  0  0  0  0  0  0  0  0  0  0  0
    4.3092   -0.7319   -0.0000 O   0  0  0  0  0  0  0  0  0  0  0  0
    2.8147   -1.7024   -0.0000 N   0  0  0  0  0  0  0  0  0  0  0  0
    1.8366   -1.4945   -0.0000 C   0  0  0  0  0  0  0  0  0  0  0  0
    0.8660   -0.0000   -0.0000 C   0  0  0  0  0  0  0  0  0  0  0  0
    1.0934   -2.1637   -0.0000 O   0  0  0  0  0  0  0  0  0  0  0  0
    0.0000   -0.5000   -0.0000 C   0  0  0  0  0  0  0  0  0  0  0  0
   -0.8660    0.0000   -0.0000 C   0  0  0  0  0  0  0  0  0  0  0  0
   -0.0000   -1.5000   -0.0000 C   0  0  0  0  0  0  0  0  0  0  0  0
   -1.7321   -0.5000   -0.0000 C   0  0  0  0  0  0  0  0  0  0  0  0
   -0.8660   -2.0000   -0.0000 C   0  0  0  0  0  0  0  0  0  0  0  0
   -1.7321   -1.5000   -0.0000 C   0  0  0  0  0  0  0  0  0  0  0  0
   -2.5981   -2.0000   -0.0000 N   0  0  0  0  0  0  0  0  0  0  0  0
   -3.5116   -1.5933   -0.0000 N   0  0  0  0  0  0  0  0  0  0  0  0
   -2.7026   -2.9945   -0.0000 C   0  0  0  0  0  0  0  0  0  0  0  0
   -4.1808   -2.3364   -0.0000 C   0  0  0  0  0  0  0  0  0  0  0  0
   -3.6808   -3.2024   -0.0000 C   0  0  0  0  0  0  0  0  0  0  0  0
   -2.0335   -3.7377   -0.0000 C   0  0  0  0  0  0  0  0  0  0  0  0
   -3.9898   -4.1535   -0.0000 C   0  0  0  0  0  0  0  0  0  0  0  0
   -2.3425   -4.6887   -0.0000 C   0  0  0  0  0  0  0  0  0  0  0  0
   -3.3206   -4.8966   -0.0000 C   0  0  0  0  0  0  0  0  0  0  0  0
  1  2  1  0  0  0  0
  1  3  1  0  0  0  0
  2  4  2  0  0  0  0
  2  5  1  0  0  0  0
  3  6  1  0  0  0  0
  3  7  2  0  0  0  0
  6  8  2  0  0  0  0
  7  9  1  0  0  0  0
  9 10  2  0  0  0  0
  9 11  1  0  0  0  0
 10 12  1  0  0  0  0
 11 13  2  0  0  0  0
 12 14  2  0  0  0  0
 14 15  1  0  0  0  0
 15 16  1  0  0  0  0
 15 17  1  0  0  0  0
 16 18  2  0  0  0  0
 17 19  2  0  0  0  0
 17 20  1  0  0  0  0
 19 21  1  0  0  0  0
 20 22  2  0  0  0  0
 21 23  2  0  0  0  0
  5  6  1  0  0  0  0
 13 14  1  0  0  0  0
 18 19  1  0  0  0  0
 22 23  1  0  0  0  0
M  END
>  <S/N>
556

>  <Compound ID>
C_573

>  <PubChem CID>
155552633

>  <Isomeric SMILES>
C1=CC=C2C(=C1)C=NN2C3=CC=C(C=C3)/C=C/4\C(=O)NC(=O)S4

>  <IC50 (�M)>
0.55

>  <pIC50>
6.26

$$$$
C_574
Actelion Java MolfileCreator 1.0

 23 25  0  0  0  0  0  0  0  0999 V2000
   10.3923    2.2500   -0.0000 F   0  0  0  0  0  0  0  0  0  0  0  0
    9.0933    1.5000   -0.0000 C   0  0  0  0  0  0  0  0  0  0  0  0
    7.7942    2.2500   -0.0000 C   0  0  0  0  0  0  0  0  0  0  0  0
    9.0933   -0.0000   -0.0000 C   0  0  0  0  0  0  0  0  0  0  0  0
    6.4952    1.5000   -0.0000 C   0  0  0  0  0  0  0  0  0  0  0  0
    7.7942   -0.7500   -0.0000 C   0  0  0  0  0  0  0  0  0  0  0  0
    6.4952   -0.0000   -0.0000 C   0  0  0  0  0  0  0  0  0  0  0  0
    5.1962   -0.7500   -0.0000 C   0  0  0  0  0  0  0  0  0  0  0  0
    3.8971   -0.0000   -0.0000 N   0  0  0  0  0  0  0  0  0  0  0  0
    2.5981   -0.7500   -0.0000 N   0  0  0  0  0  0  0  0  0  0  0  0
    1.2990   -0.0000   -0.0000 C   0  0  0  0  0  0  0  0  0  0  0  0
    1.2990    1.5000   -0.0000 O   0  0  0  0  0  0  0  0  0  0  0  0
    0.0000   -0.7500   -0.0000 C   0  0  0  0  0  0  0  0  0  0  0  0
   -1.2990    0.0000   -0.0000 C   0  0  0  0  0  0  0  0  0  0  0  0
   -0.0000   -2.2500   -0.0000 C   0  0  0  0  0  0  0  0  0  0  0  0
   -1.2990    1.5000   -0.0000 O   0  0  0  0  0  0  0  0  0  0  0  0
   -2.5981   -0.7500   -0.0000 O   0  0  0  0  0  0  0  0  0  0  0  0
   -1.2990   -3.0000   -0.0000 C   0  0  0  0  0  0  0  0  0  0  0  0
   -2.5981   -2.2500   -0.0000 C   0  0  0  0  0  0  0  0  0  0  0  0
   -1.2990   -4.5000   -0.0000 C   0  0  0  0  0  0  0  0  0  0  0  0
   -3.8971   -3.0000   -0.0000 C   0  0  0  0  0  0  0  0  0  0  0  0
   -2.5981   -5.2500   -0.0000 C   0  0  0  0  0  0  0  0  0  0  0  0
   -3.8971   -4.5000   -0.0000 C   0  0  0  0  0  0  0  0  0  0  0  0
  1  2  1  0  0  0  0
  2  3  2  0  0  0  0
  2  4  1  0  0  0  0
  3  5  1  0  0  0  0
  4  6  2  0  0  0  0
  5  7  2  0  0  0  0
  7  8  1  0  0  0  0
  8  9  2  0  0  0  0
  9 10  1  0  0  0  0
 10 11  1  0  0  0  0
 11 12  2  0  0  0  0
 11 13  1  0  0  0  0
 13 14  1  0  0  0  0
 13 15  2  0  0  0  0
 14 16  2  0  0  0  0
 14 17  1  0  0  0  0
 15 18  1  0  0  0  0
 17 19  1  0  0  0  0
 18 20  2  0  0  0  0
 19 21  2  0  0  0  0
 20 22  1  0  0  0  0
 21 23  1  0  0  0  0
  6  7  1  0  0  0  0
 18 19  1  0  0  0  0
 22 23  2  0  0  0  0
M  END
>  <S/N>
557

>  <Compound ID>
C_574

>  <PubChem CID>
155552870

>  <Isomeric SMILES>
C1=CC=C2C(=C1)C=C(C(=O)O2)C(=O)N/N=C/C3=CC=C(C=C3)F

>  <IC50 (�M)>
1.1

>  <pIC50>
5.96

$$$$
C_575
Actelion Java MolfileCreator 1.0

 37 41  0  0  0  0  0  0  0  0999 V2000
    4.4347    0.9945   -0.0000 S   0  0  0  0  0  0  0  0  0  0  0  0
    4.3301   -0.0000   -0.0000 C   0  0  0  0  0  0  0  0  0  0  0  0
    5.4128    1.2024   -0.0000 C   0  0  0  0  0  0  0  0  0  0  0  0
    5.2437   -0.4067   -0.0000 N   0  0  0  0  0  0  0  0  0  0  0  0
    3.4641   -0.5000   -0.0000 N   0  0  0  0  0  0  0  0  0  0  0  0
    5.9128    0.3364   -0.0000 C   0  0  0  0  0  0  0  0  0  0  0  0
    2.5981   -0.0000   -0.0000 C   0  0  0  0  0  0  0  0  0  0  0  0
    6.9073    0.2319   -0.0000 C   0  0  0  0  0  0  0  0  0  0  0  0
    2.5981    1.0000   -0.0000 O   0  0  0  0  0  0  0  0  0  0  0  0
    1.7321   -0.5000   -0.0000 C   0  0  0  0  0  0  0  0  0  0  0  0
    7.3141   -0.6817   -0.0000 C   0  0  0  0  0  0  0  0  0  0  0  0
    7.4951    1.0409   -0.0000 C   0  0  0  0  0  0  0  0  0  0  0  0
    0.8660   -0.0000   -0.0000 S   0  0  0  0  0  0  0  0  0  0  0  0
    8.3086   -0.7862   -0.0000 C   0  0  0  0  0  0  0  0  0  0  0  0
    8.4896    0.9364   -0.0000 C   0  0  0  0  0  0  0  0  0  0  0  0
    0.0000   -0.5000   -0.0000 C   0  0  0  0  0  0  0  0  0  0  0  0
    8.8964    0.0228   -0.0000 C   0  0  0  0  0  0  0  0  0  0  0  0
   -0.8660    0.0000   -0.0000 N   0  0  0  0  0  0  0  0  0  0  0  0
   -0.0000   -1.5000   -0.0000 N   0  0  0  0  0  0  0  0  0  0  0  0
    9.8909   -0.0817   -0.0000 C   0  0  0  0  0  0  0  0  0  0  0  0
   -1.7321   -0.5000   -0.0000 N   0  0  0  0  0  0  0  0  0  0  0  0
   -0.8660   -2.0000   -0.0000 C   0  0  0  0  0  0  0  0  0  0  0  0
   -1.7321   -1.5000   -0.0000 C   0  0  0  0  0  0  0  0  0  0  0  0
   -0.8660   -3.0000   -0.0000 C   0  0  0  0  0  0  0  0  0  0  0  0
   -2.5981   -2.0000   -0.0000 C   0  0  0  0  0  0  0  0  0  0  0  0
   -1.7321   -3.5000   -0.0000 C   0  0  0  0  0  0  0  0  0  0  0  0
   -0.0000   -3.5000   -0.0000 C   0  0  0  0  0  0  0  0  0  0  0  0
   -3.4641   -1.5000   -0.0000 C   0  0  0  0  0  0  0  0  0  0  0  0
   -2.5981   -3.0000   -0.0000 C   0  0  0  0  0  0  0  0  0  0  0  0
   -1.7321   -4.5000   -0.0000 C   0  0  0  0  0  0  0  0  0  0  0  0
   -0.0000   -4.5000   -0.0000 C   0  0  0  0  0  0  0  0  0  0  0  0
   -4.3301   -2.0000   -0.0000 C   0  0  0  0  0  0  0  0  0  0  0  0
   -3.4641   -3.5000   -0.0000 C   0  0  0  0  0  0  0  0  0  0  0  0
   -0.8660   -5.0000   -0.0000 C   0  0  0  0  0  0  0  0  0  0  0  0
   -4.3301   -3.0000   -0.0000 C   0  0  0  0  0  0  0  0  0  0  0  0
   -0.8660   -6.0000   -0.0000 F   0  0  0  0  0  0  0  0  0  0  0  0
   -5.1962   -3.5000   -0.0000 F   0  0  0  0  0  0  0  0  0  0  0  0
  1  2  1  0  0  0  0
  1  3  1  0  0  0  0
  2  4  2  0  0  0  0
  2  5  1  0  0  0  0
  3  6  2  0  0  0  0
  5  7  1  0  0  0  0
  6  8  1  0  0  0  0
  7  9  2  0  0  0  0
  7 10  1  0  0  0  0
  8 11  2  0  0  0  0
  8 12  1  0  0  0  0
 10 13  1  0  0  0  0
 11 14  1  0  0  0  0
 12 15  2  0  0  0  0
 13 16  1  0  0  0  0
 14 17  2  0  0  0  0
 16 18  2  0  0  0  0
 16 19  1  0  0  0  0
 17 20  1  0  0  0  0
 18 21  1  0  0  0  0
 19 22  2  0  0  0  0
 21 23  2  0  0  0  0
 22 24  1  0  0  0  0
 23 25  1  0  0  0  0
 24 26  2  0  0  0  0
 24 27  1  0  0  0  0
 25 28  2  0  0  0  0
 25 29  1  0  0  0  0
 26 30  1  0  0  0  0
 27 31  2  0  0  0  0
 28 32  1  0  0  0  0
 29 33  2  0  0  0  0
 30 34  2  0  0  0  0
 32 35  2  0  0  0  0
 34 36  1  0  0  0  0
 35 37  1  0  0  0  0
  4  6  1  0  0  0  0
 15 17  1  0  0  0  0
 22 23  1  0  0  0  0
 31 34  1  0  0  0  0
 33 35  1  0  0  0  0
M  END
>  <S/N>
558

>  <Compound ID>
C_575

>  <PubChem CID>
155552897

>  <Isomeric SMILES>
CC1=CC=C(C=C1)C2=CSC(=N2)NC(=O)CSC3=NC(=C(N=N3)C4=CC=C(C=C4)F)C5=CC=C(C=C5)F

>  <IC50 (�M)>
2.8

>  <pIC50>
5.55

$$$$
C_576
Actelion Java MolfileCreator 1.0

 37 41  0  0  0  0  0  0  0  0999 V2000
    9.5263    3.0000   -0.0000 Br  0  0  0  0  0  0  0  0  0  0  0  0
    8.6603    2.5000   -0.0000 C   0  0  0  0  0  0  0  0  0  0  0  0
    7.7942    3.0000   -0.0000 C   0  0  0  0  0  0  0  0  0  0  0  0
    8.6603    1.5000   -0.0000 C   0  0  0  0  0  0  0  0  0  0  0  0
    6.9282    2.5000   -0.0000 C   0  0  0  0  0  0  0  0  0  0  0  0
    7.7942    1.0000   -0.0000 C   0  0  0  0  0  0  0  0  0  0  0  0
    6.9282    1.5000   -0.0000 C   0  0  0  0  0  0  0  0  0  0  0  0
    6.0622    1.0000   -0.0000 C   0  0  0  0  0  0  0  0  0  0  0  0
    5.1962    1.5000   -0.0000 N   0  0  0  0  0  0  0  0  0  0  0  0
    6.0622   -0.0000   -0.0000 C   0  0  0  0  0  0  0  0  0  0  0  0
    4.3301    1.0000   -0.0000 N   0  0  0  0  0  0  0  0  0  0  0  0
    5.1962   -0.5000   -0.0000 N   0  0  0  0  0  0  0  0  0  0  0  0
    6.9282   -0.5000   -0.0000 C   0  0  0  0  0  0  0  0  0  0  0  0
    4.3301   -0.0000   -0.0000 C   0  0  0  0  0  0  0  0  0  0  0  0
    6.9282   -1.5000   -0.0000 C   0  0  0  0  0  0  0  0  0  0  0  0
    7.7942   -0.0000   -0.0000 C   0  0  0  0  0  0  0  0  0  0  0  0
    3.4641   -0.5000   -0.0000 S   0  0  0  0  0  0  0  0  0  0  0  0
    7.7942   -2.0000   -0.0000 C   0  0  0  0  0  0  0  0  0  0  0  0
    8.6603   -0.5000   -0.0000 C   0  0  0  0  0  0  0  0  0  0  0  0
    2.5981   -0.0000   -0.0000 C   0  0  0  0  0  0  0  0  0  0  0  0
    8.6603   -1.5000   -0.0000 C   0  0  0  0  0  0  0  0  0  0  0  0
    1.7321   -0.5000   -0.0000 C   0  0  0  0  0  0  0  0  0  0  0  0
    9.5263   -2.0000   -0.0000 Br  0  0  0  0  0  0  0  0  0  0  0  0
    1.7321   -1.5000   -0.0000 O   0  0  0  0  0  0  0  0  0  0  0  0
    0.8660   -0.0000   -0.0000 N   0  0  0  0  0  0  0  0  0  0  0  0
    0.0000   -0.5000   -0.0000 C   0  0  0  0  0  0  0  0  0  0  0  0
   -0.9135   -0.0933   -0.0000 S   0  0  0  0  0  0  0  0  0  0  0  0
   -0.1045   -1.4945   -0.0000 N   0  0  0  0  0  0  0  0  0  0  0  0
   -1.5827   -0.8364   -0.0000 C   0  0  0  0  0  0  0  0  0  0  0  0
   -1.0827   -1.7024   -0.0000 C   0  0  0  0  0  0  0  0  0  0  0  0
   -1.4894   -2.6160   -0.0000 C   0  0  0  0  0  0  0  0  0  0  0  0
   -2.4839   -2.7205   -0.0000 C   0  0  0  0  0  0  0  0  0  0  0  0
   -0.9016   -3.4250   -0.0000 C   0  0  0  0  0  0  0  0  0  0  0  0
   -2.8907   -3.6341   -0.0000 C   0  0  0  0  0  0  0  0  0  0  0  0
   -1.3084   -4.3385   -0.0000 C   0  0  0  0  0  0  0  0  0  0  0  0
   -2.3029   -4.4431   -0.0000 C   0  0  0  0  0  0  0  0  0  0  0  0
   -2.7096   -5.3566   -0.0000 Br  0  0  0  0  0  0  0  0  0  0  0  0
  1  2  1  0  0  0  0
  2  3  2  0  0  0  0
  2  4  1  0  0  0  0
  3  5  1  0  0  0  0
  4  6  2  0  0  0  0
  5  7  2  0  0  0  0
  7  8  1  0  0  0  0
  8  9  2  0  0  0  0
  8 10  1  0  0  0  0
  9 11  1  0  0  0  0
 10 12  2  0  0  0  0
 10 13  1  0  0  0  0
 11 14  2  0  0  0  0
 13 15  2  0  0  0  0
 13 16  1  0  0  0  0
 14 17  1  0  0  0  0
 15 18  1  0  0  0  0
 16 19  2  0  0  0  0
 17 20  1  0  0  0  0
 18 21  2  0  0  0  0
 20 22  1  0  0  0  0
 21 23  1  0  0  0  0
 22 24  2  0  0  0  0
 22 25  1  0  0  0  0
 25 26  1  0  0  0  0
 26 27  1  0  0  0  0
 26 28  2  0  0  0  0
 27 29  1  0  0  0  0
 28 30  1  0  0  0  0
 30 31  1  0  0  0  0
 31 32  2  0  0  0  0
 31 33  1  0  0  0  0
 32 34  1  0  0  0  0
 33 35  2  0  0  0  0
 34 36  2  0  0  0  0
 36 37  1  0  0  0  0
  6  7  1  0  0  0  0
 12 14  1  0  0  0  0
 19 21  1  0  0  0  0
 29 30  2  0  0  0  0
 35 36  1  0  0  0  0
M  END
>  <S/N>
559

>  <Compound ID>
C_576

>  <PubChem CID>
155552997

>  <Isomeric SMILES>
C1=CC(=CC=C1C2=CSC(=N2)NC(=O)CSC3=NC(=C(N=N3)C4=CC=C(C=C4)Br)C5=CC=C(C=C5)Br)Br

>  <IC50 (�M)>
2.8

>  <pIC50>
5.55

$$$$
C_577
Actelion Java MolfileCreator 1.0

 37 41  0  0  0  0  0  0  0  0999 V2000
    7.0397    4.8566   -0.0000 Br  0  0  0  0  0  0  0  0  0  0  0  0
    6.6330    3.9431   -0.0000 C   0  0  0  0  0  0  0  0  0  0  0  0
    5.6385    3.8385   -0.0000 C   0  0  0  0  0  0  0  0  0  0  0  0
    7.2208    3.1341   -0.0000 C   0  0  0  0  0  0  0  0  0  0  0  0
    5.2318    2.9250   -0.0000 C   0  0  0  0  0  0  0  0  0  0  0  0
    6.8141    2.2205   -0.0000 C   0  0  0  0  0  0  0  0  0  0  0  0
    5.8195    2.1160   -0.0000 C   0  0  0  0  0  0  0  0  0  0  0  0
    5.4128    1.2024   -0.0000 C   0  0  0  0  0  0  0  0  0  0  0  0
    4.4347    0.9945   -0.0000 N   0  0  0  0  0  0  0  0  0  0  0  0
    5.9128    0.3364   -0.0000 C   0  0  0  0  0  0  0  0  0  0  0  0
    4.3301   -0.0000   -0.0000 C   0  0  0  0  0  0  0  0  0  0  0  0
    5.2437   -0.4067   -0.0000 S   0  0  0  0  0  0  0  0  0  0  0  0
    3.4641   -0.5000   -0.0000 N   0  0  0  0  0  0  0  0  0  0  0  0
    2.5981   -0.0000   -0.0000 C   0  0  0  0  0  0  0  0  0  0  0  0
    2.5981    1.0000   -0.0000 O   0  0  0  0  0  0  0  0  0  0  0  0
    1.7321   -0.5000   -0.0000 C   0  0  0  0  0  0  0  0  0  0  0  0
    0.8660   -0.0000   -0.0000 S   0  0  0  0  0  0  0  0  0  0  0  0
    0.0000   -0.5000   -0.0000 C   0  0  0  0  0  0  0  0  0  0  0  0
   -0.8660    0.0000   -0.0000 N   0  0  0  0  0  0  0  0  0  0  0  0
   -0.0000   -1.5000   -0.0000 N   0  0  0  0  0  0  0  0  0  0  0  0
   -1.7321   -0.5000   -0.0000 N   0  0  0  0  0  0  0  0  0  0  0  0
   -0.8660   -2.0000   -0.0000 C   0  0  0  0  0  0  0  0  0  0  0  0
   -1.7321   -1.5000   -0.0000 C   0  0  0  0  0  0  0  0  0  0  0  0
   -0.8660   -3.0000   -0.0000 C   0  0  0  0  0  0  0  0  0  0  0  0
   -2.5981   -2.0000   -0.0000 C   0  0  0  0  0  0  0  0  0  0  0  0
   -1.7321   -3.5000   -0.0000 C   0  0  0  0  0  0  0  0  0  0  0  0
   -0.0000   -3.5000   -0.0000 C   0  0  0  0  0  0  0  0  0  0  0  0
   -3.4641   -1.5000   -0.0000 C   0  0  0  0  0  0  0  0  0  0  0  0
   -2.5981   -3.0000   -0.0000 C   0  0  0  0  0  0  0  0  0  0  0  0
   -1.7321   -4.5000   -0.0000 C   0  0  0  0  0  0  0  0  0  0  0  0
   -0.0000   -4.5000   -0.0000 C   0  0  0  0  0  0  0  0  0  0  0  0
   -4.3301   -2.0000   -0.0000 C   0  0  0  0  0  0  0  0  0  0  0  0
   -3.4641   -3.5000   -0.0000 C   0  0  0  0  0  0  0  0  0  0  0  0
   -0.8660   -5.0000   -0.0000 C   0  0  0  0  0  0  0  0  0  0  0  0
   -4.3301   -3.0000   -0.0000 C   0  0  0  0  0  0  0  0  0  0  0  0
   -0.8660   -6.0000   -0.0000 F   0  0  0  0  0  0  0  0  0  0  0  0
   -5.1962   -3.5000   -0.0000 F   0  0  0  0  0  0  0  0  0  0  0  0
  1  2  1  0  0  0  0
  2  3  2  0  0  0  0
  2  4  1  0  0  0  0
  3  5  1  0  0  0  0
  4  6  2  0  0  0  0
  5  7  2  0  0  0  0
  7  8  1  0  0  0  0
  8  9  1  0  0  0  0
  8 10  2  0  0  0  0
  9 11  2  0  0  0  0
 10 12  1  0  0  0  0
 11 13  1  0  0  0  0
 13 14  1  0  0  0  0
 14 15  2  0  0  0  0
 14 16  1  0  0  0  0
 16 17  1  0  0  0  0
 17 18  1  0  0  0  0
 18 19  2  0  0  0  0
 18 20  1  0  0  0  0
 19 21  1  0  0  0  0
 20 22  2  0  0  0  0
 21 23  2  0  0  0  0
 22 24  1  0  0  0  0
 23 25  1  0  0  0  0
 24 26  2  0  0  0  0
 24 27  1  0  0  0  0
 25 28  2  0  0  0  0
 25 29  1  0  0  0  0
 26 30  1  0  0  0  0
 27 31  2  0  0  0  0
 28 32  1  0  0  0  0
 29 33  2  0  0  0  0
 30 34  2  0  0  0  0
 32 35  2  0  0  0  0
 34 36  1  0  0  0  0
 35 37  1  0  0  0  0
  6  7  1  0  0  0  0
 11 12  1  0  0  0  0
 22 23  1  0  0  0  0
 31 34  1  0  0  0  0
 33 35  1  0  0  0  0
M  END
>  <S/N>
560

>  <Compound ID>
C_577

>  <PubChem CID>
155553123

>  <Isomeric SMILES>
C1=CC(=CC=C1C2=C(N=NC(=N2)SCC(=O)NC3=NC(=CS3)C4=CC=C(C=C4)Br)C5=CC=C(C=C5)F)F

>  <IC50 (�M)>
2.8

>  <pIC50>
5.55

$$$$
C_578
Actelion Java MolfileCreator 1.0

 29 32  0  0  0  0  0  0  0  0999 V2000
    1.7321    4.5000   -0.0000 Br  0  0  0  0  0  0  0  0  0  0  0  0
    2.5981    4.0000   -0.0000 C   0  0  0  0  0  0  0  0  0  0  0  0
    2.5981    3.0000   -0.0000 C   0  0  0  0  0  0  0  0  0  0  0  0
    3.4641    4.5000   -0.0000 C   0  0  0  0  0  0  0  0  0  0  0  0
    3.4641    2.5000   -0.0000 C   0  0  0  0  0  0  0  0  0  0  0  0
    4.3301    4.0000   -0.0000 C   0  0  0  0  0  0  0  0  0  0  0  0
    3.4641    1.5000   -0.0000 C   0  0  0  0  0  0  0  0  0  0  0  0
    4.3301    3.0000   -0.0000 C   0  0  0  0  0  0  0  0  0  0  0  0
    2.5981    1.0000   -0.0000 N   0  0  0  0  0  0  0  0  0  0  0  0
    4.3301    1.0000   -0.0000 C   0  0  0  0  0  0  0  0  0  0  0  0
    2.5981   -0.0000   -0.0000 C   0  0  0  0  0  0  0  0  0  0  0  0
    4.3301   -0.0000   -0.0000 C   0  0  0  0  0  0  0  0  0  0  0  0
    1.7321   -0.5000   -0.0000 S   0  0  0  0  0  0  0  0  0  0  0  0
    3.4641   -0.5000   -0.0000 N   0  0  0  0  0  0  0  0  0  0  0  0
    5.1962   -0.5000   -0.0000 C   0  0  0  0  0  0  0  0  0  0  0  0
    0.8660   -0.0000   -0.0000 C   0  0  0  0  0  0  0  0  0  0  0  0
    5.1962   -1.5000   -0.0000 C   0  0  0  0  0  0  0  0  0  0  0  0
    6.0622   -0.0000   -0.0000 C   0  0  0  0  0  0  0  0  0  0  0  0
    0.0000   -0.5000   -0.0000 C   0  0  0  0  0  0  0  0  0  0  0  0
    6.0622   -2.0000   -0.0000 C   0  0  0  0  0  0  0  0  0  0  0  0
    6.9282   -0.5000   -0.0000 C   0  0  0  0  0  0  0  0  0  0  0  0
   -0.8660    0.0000   -0.0000 C   0  0  0  0  0  0  0  0  0  0  0  0
   -0.0000   -1.5000   -0.0000 C   0  0  0  0  0  0  0  0  0  0  0  0
    6.9282   -1.5000   -0.0000 C   0  0  0  0  0  0  0  0  0  0  0  0
   -1.7321   -0.5000   -0.0000 C   0  0  0  0  0  0  0  0  0  0  0  0
   -0.8660   -2.0000   -0.0000 C   0  0  0  0  0  0  0  0  0  0  0  0
    7.7942   -2.0000   -0.0000 Br  0  0  0  0  0  0  0  0  0  0  0  0
   -2.5981    0.0000   -0.0000 F   0  0  0  0  0  0  0  0  0  0  0  0
   -1.7321   -1.5000   -0.0000 C   0  0  0  0  0  0  0  0  0  0  0  0
  1  2  1  0  0  0  0
  2  3  2  0  0  0  0
  2  4  1  0  0  0  0
  3  5  1  0  0  0  0
  4  6  2  0  0  0  0
  5  7  1  0  0  0  0
  5  8  2  0  0  0  0
  7  9  2  0  0  0  0
  7 10  1  0  0  0  0
  9 11  1  0  0  0  0
 10 12  2  0  0  0  0
 11 13  1  0  0  0  0
 11 14  2  0  0  0  0
 12 15  1  0  0  0  0
 13 16  1  0  0  0  0
 15 17  2  0  0  0  0
 15 18  1  0  0  0  0
 16 19  1  0  0  0  0
 17 20  1  0  0  0  0
 18 21  2  0  0  0  0
 19 22  2  0  0  0  0
 19 23  1  0  0  0  0
 20 24  2  0  0  0  0
 22 25  1  0  0  0  0
 23 26  2  0  0  0  0
 24 27  1  0  0  0  0
 25 28  1  0  0  0  0
 25 29  2  0  0  0  0
  6  8  1  0  0  0  0
 12 14  1  0  0  0  0
 21 24  1  0  0  0  0
 26 29  1  0  0  0  0
M  END
>  <S/N>
561

>  <Compound ID>
C_578

>  <PubChem CID>
155553329

>  <Isomeric SMILES>
C1=CC(=CC(=C1)F)CSC2=NC(=CC(=N2)C3=CC(=CC=C3)Br)C4=CC=C(C=C4)Br

>  <IC50 (�M)>
19

>  <pIC50>
4.72

$$$$
C_579
Actelion Java MolfileCreator 1.0

 25 28  0  0  0  0  0  0  0  0999 V2000
    2.7026    0.9945   -0.0000 S   0  0  0  0  0  0  0  0  0  0  0  0
    2.5981   -0.0000   -0.0000 C   0  0  0  0  0  0  0  0  0  0  0  0
    3.6808    1.2024   -0.0000 C   0  0  0  0  0  0  0  0  0  0  0  0
    3.5116   -0.4067   -0.0000 N   0  0  0  0  0  0  0  0  0  0  0  0
    1.7321   -0.5000   -0.0000 N   0  0  0  0  0  0  0  0  0  0  0  0
    4.1808    0.3364   -0.0000 C   0  0  0  0  0  0  0  0  0  0  0  0
    0.8660   -0.0000   -0.0000 N   0  0  0  0  0  0  0  0  0  0  0  0
    5.1753    0.2319   -0.0000 C   0  0  0  0  0  0  0  0  0  0  0  0
    0.0000   -0.5000   -0.0000 C   0  0  0  0  0  0  0  0  0  0  0  0
    5.5820   -0.6817   -0.0000 C   0  0  0  0  0  0  0  0  0  0  0  0
    5.7631    1.0409   -0.0000 C   0  0  0  0  0  0  0  0  0  0  0  0
   -0.9135   -0.0933   -0.0000 C   0  0  0  0  0  0  0  0  0  0  0  0
   -0.1045   -1.4945   -0.0000 C   0  0  0  0  0  0  0  0  0  0  0  0
    6.5765   -0.7862   -0.0000 C   0  0  0  0  0  0  0  0  0  0  0  0
    6.7576    0.9364   -0.0000 C   0  0  0  0  0  0  0  0  0  0  0  0
   -1.1215    0.8849   -0.0000 O   0  0  0  0  0  0  0  0  0  0  0  0
   -1.5827   -0.8364   -0.0000 N   0  0  0  0  0  0  0  0  0  0  0  0
   -1.0827   -1.7024   -0.0000 C   0  0  0  0  0  0  0  0  0  0  0  0
    0.5646   -2.2377   -0.0000 C   0  0  0  0  0  0  0  0  0  0  0  0
    7.1643    0.0228   -0.0000 C   0  0  0  0  0  0  0  0  0  0  0  0
   -1.3917   -2.6535   -0.0000 C   0  0  0  0  0  0  0  0  0  0  0  0
    0.2556   -3.1887   -0.0000 C   0  0  0  0  0  0  0  0  0  0  0  0
    8.1588   -0.0817   -0.0000 O   0  0  0  0  0  0  0  0  0  0  0  0
   -0.7226   -3.3966   -0.0000 C   0  0  0  0  0  0  0  0  0  0  0  0
    0.9247   -3.9319   -0.0000 C   0  0  0  0  0  0  0  0  0  0  0  0
  1  2  1  0  0  0  0
  1  3  1  0  0  0  0
  2  4  2  0  0  0  0
  2  5  1  0  0  0  0
  3  6  2  0  0  0  0
  5  7  2  3  0  0  0
  6  8  1  0  0  0  0
  7  9  1  0  0  0  0
  8 10  2  0  0  0  0
  8 11  1  0  0  0  0
  9 12  2  0  0  0  0
  9 13  1  0  0  0  0
 10 14  1  0  0  0  0
 11 15  2  0  0  0  0
 12 16  1  0  0  0  0
 12 17  1  0  0  0  0
 13 18  2  0  0  0  0
 13 19  1  0  0  0  0
 14 20  2  0  0  0  0
 18 21  1  0  0  0  0
 19 22  2  0  0  0  0
 20 23  1  0  0  0  0
 21 24  2  0  0  0  0
 22 25  1  0  0  0  0
  4  6  1  0  0  0  0
 15 20  1  0  0  0  0
 17 18  1  0  0  0  0
 22 24  1  0  0  0  0
M  END
>  <S/N>
562

>  <Compound ID>
C_579

>  <PubChem CID>
155553432

>  <Isomeric SMILES>
CC1=CC2=C(C=C1)NC(=C2N=NC3=NC(=CS3)C4=CC=C(C=C4)O)O

>  <IC50 (�M)>
5.3

>  <pIC50>
5.28

$$$$
C_580
Actelion Java MolfileCreator 1.0

 41 47  0  0  0  0  0  0  0  0999 V2000
    5.5281   -7.6582   -0.0000 Br  0  0  0  0  0  0  0  0  0  0  0  0
    5.5281   -6.6582   -0.0000 C   0  0  0  0  0  0  0  0  0  0  0  0
    4.6621   -6.1582   -0.0000 C   0  0  0  0  0  0  0  0  0  0  0  0
    6.3941   -6.1582   -0.0000 C   0  0  0  0  0  0  0  0  0  0  0  0
    4.6621   -5.1582   -0.0000 C   0  0  0  0  0  0  0  0  0  0  0  0
    6.3941   -5.1582   -0.0000 C   0  0  0  0  0  0  0  0  0  0  0  0
    3.7960   -4.6582   -0.0000 C   0  0  0  0  0  0  0  0  0  0  0  0
    5.5281   -4.6582   -0.0000 C   0  0  0  0  0  0  0  0  0  0  0  0
    2.8825   -5.0649   -0.0000 N   0  0  0  0  0  0  0  0  0  0  0  0
    3.6915   -3.6637   -0.0000 C   0  0  0  0  0  0  0  0  0  0  0  0
    2.2134   -4.3218   -0.0000 C   0  0  0  0  0  0  0  0  0  0  0  0
    4.4347   -2.9945   -0.0000 C   0  0  0  0  0  0  0  0  0  0  0  0
    2.7134   -3.4557   -0.0000 C   0  0  0  0  0  0  0  0  0  0  0  0
    1.2134   -4.3218   -0.0000 C   0  0  0  0  0  0  0  0  0  0  0  0
    5.4128   -3.2024   -0.0000 N   0  0  0  0  0  0  0  0  0  0  0  0
    4.3301   -2.0000   -0.0000 N   0  0  0  0  0  0  0  0  0  0  0  0
    2.2134   -2.5897   -0.0000 C   0  0  0  0  0  0  0  0  0  0  0  0
    0.7134   -3.4557   -0.0000 C   0  0  0  0  0  0  0  0  0  0  0  0
    5.9128   -2.3364   -0.0000 C   0  0  0  0  0  0  0  0  0  0  0  0
    3.4641   -1.5000   -0.0000 C   0  0  0  0  0  0  0  0  0  0  0  0
    5.2437   -1.5933   -0.0000 C   0  0  0  0  0  0  0  0  0  0  0  0
    1.2134   -2.5897   -0.0000 C   0  0  0  0  0  0  0  0  0  0  0  0
    6.9073   -2.2319   -0.0000 C   0  0  0  0  0  0  0  0  0  0  0  0
    3.4641   -0.5000   -0.0000 C   0  0  0  0  0  0  0  0  0  0  0  0
    2.5981   -2.0000   -0.0000 C   0  0  0  0  0  0  0  0  0  0  0  0
    5.4516   -0.6151   -0.0000 C   0  0  0  0  0  0  0  0  0  0  0  0
    7.4951   -3.0409   -0.0000 C   0  0  0  0  0  0  0  0  0  0  0  0
    7.3141   -1.3183   -0.0000 C   0  0  0  0  0  0  0  0  0  0  0  0
    2.5981    0.0000   -0.0000 C   0  0  0  0  0  0  0  0  0  0  0  0
    1.7321   -1.5000   -0.0000 C   0  0  0  0  0  0  0  0  0  0  0  0
    6.4026   -0.3061   -0.0000 C   0  0  0  0  0  0  0  0  0  0  0  0
    4.7084    0.0540   -0.0000 C   0  0  0  0  0  0  0  0  0  0  0  0
    8.4896   -2.9364   -0.0000 C   0  0  0  0  0  0  0  0  0  0  0  0
    8.3086   -1.2138   -0.0000 C   0  0  0  0  0  0  0  0  0  0  0  0
    1.7321   -0.5000   -0.0000 C   0  0  0  0  0  0  0  0  0  0  0  0
    6.6106    0.6720   -0.0000 C   0  0  0  0  0  0  0  0  0  0  0  0
    4.9164    1.0322   -0.0000 C   0  0  0  0  0  0  0  0  0  0  0  0
    8.8964   -2.0228   -0.0000 C   0  0  0  0  0  0  0  0  0  0  0  0
    0.8660   -0.0000   -0.0000 O   0  0  0  0  0  0  0  0  0  0  0  0
    5.8674    1.3412   -0.0000 C   0  0  0  0  0  0  0  0  0  0  0  0
    0.0000   -0.5000   -0.0000 C   0  0  0  0  0  0  0  0  0  0  0  0
  1  2  1  0  0  0  0
  2  3  2  0  0  0  0
  2  4  1  0  0  0  0
  3  5  1  0  0  0  0
  4  6  2  0  0  0  0
  5  7  1  0  0  0  0
  5  8  2  0  0  0  0
  7  9  1  0  0  0  0
  7 10  2  0  0  0  0
  9 11  1  0  0  0  0
 10 12  1  0  0  0  0
 10 13  1  0  0  0  0
 11 14  2  0  0  0  0
 12 15  2  0  0  0  0
 12 16  1  0  0  0  0
 13 17  2  0  0  0  0
 14 18  1  0  0  0  0
 15 19  1  0  0  0  0
 16 20  1  0  0  0  0
 16 21  1  0  0  0  0
 17 22  1  0  0  0  0
 19 23  1  0  0  0  0
 20 24  2  0  0  0  0
 20 25  1  0  0  0  0
 21 26  1  0  0  0  0
 23 27  2  0  0  0  0
 23 28  1  0  0  0  0
 24 29  1  0  0  0  0
 25 30  2  0  0  0  0
 26 31  2  0  0  0  0
 26 32  1  0  0  0  0
 27 33  1  0  0  0  0
 28 34  2  0  0  0  0
 29 35  2  0  0  0  0
 31 36  1  0  0  0  0
 32 37  2  0  0  0  0
 33 38  2  0  0  0  0
 35 39  1  0  0  0  0
 36 40  2  0  0  0  0
 39 41  1  0  0  0  0
  6  8  1  0  0  0  0
 11 13  1  0  0  0  0
 18 22  2  0  0  0  0
 19 21  2  0  0  0  0
 30 35  1  0  0  0  0
 34 38  1  0  0  0  0
 37 40  1  0  0  0  0
M  END
>  <S/N>
563

>  <Compound ID>
C_580

>  <PubChem CID>
155553806

>  <Isomeric SMILES>
COC1=CC=C(C=C1)N2C(=C(N=C2C3=C(NC4=CC=CC=C43)C5=CC(=CC=C5)Br)C6=CC=CC=C6)C7=CC=CC=C7

>  <IC50 (�M)>
8.3

>  <pIC50>
5.08

$$$$
C_581
Actelion Java MolfileCreator 1.0

 65 74  0  0  0  0  0  0  0  0999 V2000
    3.7195   -1.3849   -0.0000 S   0  0  0  0  0  0  0  0  0  0  0  0
    3.5116   -0.4067   -0.0000 C   0  0  0  0  0  0  0  0  0  0  0  0
    4.1808    0.3364   -0.0000 O   0  0  0  0  0  0  0  0  0  0  0  0
    2.5981   -0.0000   -0.0000 N   0  0  0  0  0  0  0  0  0  0  0  0
    3.6808    1.2024   -0.0000 C   0  0  0  0  0  0  0  0  0  0  0  0
    2.7026    0.9945   -0.0000 N   0  0  0  0  0  0  0  0  0  0  0  0
    1.7321   -0.5000   -0.0000 C   0  0  0  0  0  0  0  0  0  0  0  0
    4.0875    2.1160   -0.0000 C   0  0  0  0  0  0  0  0  0  0  0  0
    0.8660   -0.0000   -0.0000 N   0  0  0  0  0  0  0  0  0  0  0  0
    1.7321   -1.5000   -0.0000 C   0  0  0  0  0  0  0  0  0  0  0  0
    5.0820    2.2205   -0.0000 C   0  0  0  0  0  0  0  0  0  0  0  0
    3.4997    2.9250   -0.0000 C   0  0  0  0  0  0  0  0  0  0  0  0
    0.0000   -0.5000   -0.0000 C   0  0  0  0  0  0  0  0  0  0  0  0
    0.8660   -2.0000   -0.0000 C   0  0  0  0  0  0  0  0  0  0  0  0
    2.5981   -2.0000   -0.0000 C   0  0  0  0  0  0  0  0  0  0  0  0
    5.6698    1.4115   -0.0000 O   0  0  0  0  0  0  0  0  0  0  0  0
    5.4887    3.1341   -0.0000 O   0  0  0  0  0  0  0  0  0  0  0  0
    3.9064    3.8385   -0.0000 C   0  0  0  0  0  0  0  0  0  0  0  0
   -0.8660    0.0000   -0.0000 C   0  0  0  0  0  0  0  0  0  0  0  0
   -0.0000   -1.5000   -0.0000 C   0  0  0  0  0  0  0  0  0  0  0  0
    0.8660   -3.0000   -0.0000 C   0  0  0  0  0  0  0  0  0  0  0  0
    2.5981   -3.0000   -0.0000 C   0  0  0  0  0  0  0  0  0  0  0  0
    4.9010    3.9431   -0.0000 C   0  0  0  0  0  0  0  0  0  0  0  0
    3.3187    4.6476   -0.0000 C   0  0  0  0  0  0  0  0  0  0  0  0
   -1.7321   -0.5000   -0.0000 C   0  0  0  0  0  0  0  0  0  0  0  0
   -0.8660   -2.0000   -0.0000 C   0  0  0  0  0  0  0  0  0  0  0  0
    1.7321   -3.5000   -0.0000 C   0  0  0  0  0  0  0  0  0  0  0  0
    5.3077    4.8566   -0.0000 C   0  0  0  0  0  0  0  0  0  0  0  0
    3.7254    5.5611   -0.0000 C   0  0  0  0  0  0  0  0  0  0  0  0
   -1.7321   -1.5000   -0.0000 C   0  0  0  0  0  0  0  0  0  0  0  0
    1.7321   -4.5000   -0.0000 C   0  0  0  0  0  0  0  0  0  0  0  0
    4.7199    5.6656   -0.0000 C   0  0  0  0  0  0  0  0  0  0  0  0
   -2.5981   -2.0000   -0.0000 O   0  0  0  0  0  0  0  0  0  0  0  0
   -2.5981   -3.0000   -0.0000 C   0  0  0  0  0  0  0  0  0  0  0  0
   -3.4641   -3.5000   -0.0000 C   0  0  0  0  0  0  0  0  0  0  0  0
   -1.7321   -3.5000   -0.0000 C   0  0  0  0  0  0  0  0  0  0  0  0
   -3.4641   -4.5000   -0.0000 C   0  0  0  0  0  0  0  0  0  0  0  0
   -1.7321   -4.5000   -0.0000 C   0  0  0  0  0  0  0  0  0  0  0  0
   -2.5981   -5.0000   -0.0000 C   0  0  0  0  0  0  0  0  0  0  0  0
   -2.5981   -6.0000   -0.0000 N   0  0  0  0  0  0  0  0  0  0  0  0
   -3.4641   -6.5000   -0.0000 C   0  0  0  0  0  0  0  0  0  0  0  0
   -4.3301   -6.0000   -0.0000 N   0  0  0  0  0  0  0  0  0  0  0  0
   -3.4641   -7.5000   -0.0000 C   0  0  0  0  0  0  0  0  0  0  0  0
   -4.4347   -5.0055   -0.0000 N   0  0  0  0  0  0  0  0  0  0  0  0
   -5.2437   -6.4067   -0.0000 C   0  0  0  0  0  0  0  0  0  0  0  0
   -4.3301   -8.0000   -0.0000 C   0  0  0  0  0  0  0  0  0  0  0  0
   -2.5981   -8.0000   -0.0000 C   0  0  0  0  0  0  0  0  0  0  0  0
   -5.4128   -4.7976   -0.0000 C   0  0  0  0  0  0  0  0  0  0  0  0
   -5.4516   -7.3849   -0.0000 S   0  0  0  0  0  0  0  0  0  0  0  0
   -5.9128   -5.6636   -0.0000 O   0  0  0  0  0  0  0  0  0  0  0  0
   -4.3301   -9.0000   -0.0000 C   0  0  0  0  0  0  0  0  0  0  0  0
   -2.5981   -9.0000   -0.0000 C   0  0  0  0  0  0  0  0  0  0  0  0
   -5.8195   -3.8840   -0.0000 C   0  0  0  0  0  0  0  0  0  0  0  0
   -3.4641   -9.5000   -0.0000 C   0  0  0  0  0  0  0  0  0  0  0  0
   -5.2318   -3.0750   -0.0000 C   0  0  0  0  0  0  0  0  0  0  0  0
   -6.8141   -3.7795   -0.0000 C   0  0  0  0  0  0  0  0  0  0  0  0
   -3.4641  -10.5000   -0.0000 C   0  0  0  0  0  0  0  0  0  0  0  0
   -4.2372   -3.1795   -0.0000 O   0  0  0  0  0  0  0  0  0  0  0  0
   -5.6385   -2.1615   -0.0000 O   0  0  0  0  0  0  0  0  0  0  0  0
   -7.2208   -2.8659   -0.0000 C   0  0  0  0  0  0  0  0  0  0  0  0
   -6.6330   -2.0569   -0.0000 C   0  0  0  0  0  0  0  0  0  0  0  0
   -8.2153   -2.7614   -0.0000 C   0  0  0  0  0  0  0  0  0  0  0  0
   -7.0397   -1.1434   -0.0000 C   0  0  0  0  0  0  0  0  0  0  0  0
   -8.6221   -1.8479   -0.0000 C   0  0  0  0  0  0  0  0  0  0  0  0
   -8.0343   -1.0389   -0.0000 C   0  0  0  0  0  0  0  0  0  0  0  0
  1  2  2  0  0  0  0
  2  3  1  0  0  0  0
  2  4  1  0  0  0  0
  3  5  1  0  0  0  0
  4  6  1  0  0  0  0
  4  7  1  0  0  0  0
  5  8  1  0  0  0  0
  7  9  1  0  0  0  0
  7 10  1  0  0  0  0
  8 11  1  0  0  0  0
  8 12  2  0  0  0  0
  9 13  1  0  0  0  0
 10 14  2  0  0  0  0
 10 15  1  0  0  0  0
 11 16  2  0  0  0  0
 11 17  1  0  0  0  0
 12 18  1  0  0  0  0
 13 19  2  0  0  0  0
 13 20  1  0  0  0  0
 14 21  1  0  0  0  0
 15 22  2  0  0  0  0
 17 23  1  0  0  0  0
 18 24  1  0  0  0  0
 19 25  1  0  0  0  0
 20 26  2  0  0  0  0
 21 27  2  0  0  0  0
 23 28  1  0  0  0  0
 24 29  2  0  0  0  0
 25 30  2  0  0  0  0
 27 31  1  0  0  0  0
 28 32  2  0  0  0  0
 30 33  1  0  0  0  0
 33 34  1  0  0  0  0
 34 35  2  0  0  0  0
 34 36  1  0  0  0  0
 35 37  1  0  0  0  0
 36 38  2  0  0  0  0
 37 39  2  0  0  0  0
 39 40  1  0  0  0  0
 40 41  1  0  0  0  0
 41 42  1  0  0  0  0
 41 43  1  0  0  0  0
 42 44  1  0  0  0  0
 42 45  1  0  0  0  0
 43 46  2  0  0  0  0
 43 47  1  0  0  0  0
 44 48  2  0  0  0  0
 45 49  2  0  0  0  0
 45 50  1  0  0  0  0
 46 51  1  0  0  0  0
 47 52  2  0  0  0  0
 48 53  1  0  0  0  0
 51 54  2  0  0  0  0
 53 55  1  0  0  0  0
 53 56  2  0  0  0  0
 54 57  1  0  0  0  0
 55 58  2  0  0  0  0
 55 59  1  0  0  0  0
 56 60  1  0  0  0  0
 59 61  1  0  0  0  0
 60 62  2  0  0  0  0
 61 63  2  0  0  0  0
 62 64  1  0  0  0  0
 63 65  1  0  0  0  0
  5  6  2  0  0  0  0
 18 23  2  0  0  0  0
 22 27  1  0  0  0  0
 26 30  1  0  0  0  0
 29 32  1  0  0  0  0
 38 39  1  0  0  0  0
 48 50  1  0  0  0  0
 52 54  1  0  0  0  0
 60 61  1  0  0  0  0
 64 65  2  0  0  0  0
M  END
>  <S/N>
564

>  <Compound ID>
C_581

>  <PubChem CID>
155554008

>  <Isomeric SMILES>
CC1=CC=C(C=C1)C(NC2=CC=C(C=C2)OC3=CC=C(C=C3)NC(C4=CC=C(C=C4)C)N5C(=S)OC(=N5)C6=CC7=CC=CC=C7OC6=O)N8C(=S)OC(=N8)C9=CC1=CC=CC=C1OC9=O

>  <IC50 (�M)>
0.07

>  <pIC50>
7.15

$$$$
C_582
Actelion Java MolfileCreator 1.0

 26 29  0  0  1  0  0  0  0  0999 V2000
    9.0933   -3.0000   -0.0000 Br  0  0  0  0  0  0  0  0  0  0  0  0
    7.7942   -2.2500   -0.0000 C   0  0  0  0  0  0  0  0  0  0  0  0
    7.7942   -0.7500   -0.0000 C   0  0  0  0  0  0  0  0  0  0  0  0
    6.4952   -3.0000   -0.0000 C   0  0  0  0  0  0  0  0  0  0  0  0
    6.4952    0.0000   -0.0000 C   0  0  0  0  0  0  0  0  0  0  0  0
    5.1962   -2.2500   -0.0000 C   0  0  0  0  0  0  0  0  0  0  0  0
    5.1962   -0.7500   -0.0000 C   0  0  0  0  0  0  0  0  0  0  0  0
    3.8971   -0.0000   -0.0000 C   0  0  0  0  0  0  0  0  0  0  0  0
    3.8971    1.5000   -0.0000 C   0  0  0  0  0  0  0  0  0  0  0  0
    2.5981   -0.7500   -0.0000 C   0  0  0  0  0  0  0  0  0  0  0  0
    5.1106    2.3817   -0.0000 C   0  0  0  0  0  0  0  0  0  0  0  0
    2.6836    2.3817   -0.0000 C   0  0  0  0  0  0  0  0  0  0  0  0
    1.2990   -0.0000   -0.0000 C   0  0  0  0  0  0  0  0  0  0  0  0
    4.6471    3.8083   -0.0000 C   0  0  0  0  0  0  0  0  0  0  0  0
    6.5779    2.0698   -0.0000 C   0  0  0  0  0  0  0  0  0  0  0  0
    3.1471    3.8083   -0.0000 N   0  0  0  0  0  0  0  0  0  0  0  0
    1.2990    1.5000   -0.0000 O   0  0  0  0  0  0  0  0  0  0  0  0
    0.0000   -0.7500   -0.0000 C   0  0  0  0  0  0  0  0  0  0  0  0
    5.6508    4.9230   -0.0000 C   0  0  0  0  0  0  0  0  0  0  0  0
    7.5816    3.1845   -0.0000 C   0  0  0  0  0  0  0  0  0  0  0  0
   -1.2990    0.0000   -0.0000 C   0  0  0  0  0  0  0  0  0  0  0  0
   -0.0000   -2.2500   -0.0000 C   0  0  0  0  0  0  0  0  0  0  0  0
    7.1180    4.6111   -0.0000 C   0  0  0  0  0  0  0  0  0  0  0  0
   -2.5981   -0.7500   -0.0000 C   0  0  0  0  0  0  0  0  0  0  0  0
   -1.2990   -3.0000   -0.0000 C   0  0  0  0  0  0  0  0  0  0  0  0
   -2.5981   -2.2500   -0.0000 C   0  0  0  0  0  0  0  0  0  0  0  0
  1  2  1  0  0  0  0
  2  3  2  0  0  0  0
  2  4  1  0  0  0  0
  3  5  1  0  0  0  0
  4  6  2  0  0  0  0
  5  7  2  0  0  0  0
  7  8  1  0  0  0  0
  8  9  1  0  0  0  0
  8 10  1  6  0  0  0
  9 11  1  0  0  0  0
  9 12  2  0  0  0  0
 10 13  1  0  0  0  0
 11 14  2  0  0  0  0
 11 15  1  0  0  0  0
 12 16  1  0  0  0  0
 13 17  2  0  0  0  0
 13 18  1  0  0  0  0
 14 19  1  0  0  0  0
 15 20  2  0  0  0  0
 18 21  2  0  0  0  0
 18 22  1  0  0  0  0
 19 23  2  0  0  0  0
 21 24  1  0  0  0  0
 22 25  2  0  0  0  0
 24 26  2  0  0  0  0
  6  7  1  0  0  0  0
 14 16  1  0  0  0  0
 20 23  1  0  0  0  0
 25 26  1  0  0  0  0
M  END
>  <S/N>
565

>  <Compound ID>
C_582

>  <PubChem CID>
155554549

>  <Isomeric SMILES>
C1=CC=C(C=C1)C(=O)C[C@@H](C2=CC=C(C=C2)Br)C3=CNC4=CC=CC=C43

>  <IC50 (�M)>
4.3

>  <pIC50>
5.37

$$$$
C_583
Actelion Java MolfileCreator 1.0

 37 41  0  0  0  0  0  0  0  0999 V2000
    6.5665   -0.1399   -0.0000 S   0  0  0  0  0  0  0  0  0  0  0  0
    5.1962   -0.7500   -0.0000 C   0  0  0  0  0  0  0  0  0  0  0  0
    7.5702   -1.2546   -0.0000 C   0  0  0  0  0  0  0  0  0  0  0  0
    3.8971   -0.0000   -0.0000 N   0  0  0  0  0  0  0  0  0  0  0  0
    5.3529   -2.2418   -0.0000 N   0  0  0  0  0  0  0  0  0  0  0  0
    6.8202   -2.5537   -0.0000 C   0  0  0  0  0  0  0  0  0  0  0  0
    9.0619   -1.0978   -0.0000 C   0  0  0  0  0  0  0  0  0  0  0  0
    3.8971    1.5000   -0.0000 N   0  0  0  0  0  0  0  0  0  0  0  0
    4.2382   -3.2455   -0.0000 C   0  0  0  0  0  0  0  0  0  0  0  0
    7.4303   -3.9240   -0.0000 O   0  0  0  0  0  0  0  0  0  0  0  0
    9.6721    0.2725   -0.0000 C   0  0  0  0  0  0  0  0  0  0  0  0
    2.5981    2.2500   -0.0000 C   0  0  0  0  0  0  0  0  0  0  0  0
    2.8116   -2.7820   -0.0000 C   0  0  0  0  0  0  0  0  0  0  0  0
    4.5501   -4.7127   -0.0000 C   0  0  0  0  0  0  0  0  0  0  0  0
   11.1638    0.4293   -0.0000 C   0  0  0  0  0  0  0  0  0  0  0  0
    8.7904    1.4860   -0.0000 C   0  0  0  0  0  0  0  0  0  0  0  0
    1.2990    1.5000   -0.0000 O   0  0  0  0  0  0  0  0  0  0  0  0
    2.5981    3.7500   -0.0000 C   0  0  0  0  0  0  0  0  0  0  0  0
    1.6969   -3.7856   -0.0000 C   0  0  0  0  0  0  0  0  0  0  0  0
    2.4998   -1.3147   -0.0000 C   0  0  0  0  0  0  0  0  0  0  0  0
    3.4354   -5.7164   -0.0000 C   0  0  0  0  0  0  0  0  0  0  0  0
    5.9767   -5.1762   -0.0000 C   0  0  0  0  0  0  0  0  0  0  0  0
   11.7739    1.7996   -0.0000 C   0  0  0  0  0  0  0  0  0  0  0  0
    9.4005    2.8563   -0.0000 C   0  0  0  0  0  0  0  0  0  0  0  0
    1.2990    4.5000   -0.0000 C   0  0  0  0  0  0  0  0  0  0  0  0
    3.8971    4.5000   -0.0000 C   0  0  0  0  0  0  0  0  0  0  0  0
    2.0088   -5.2529   -0.0000 C   0  0  0  0  0  0  0  0  0  0  0  0
   10.8923    3.0131   -0.0000 C   0  0  0  0  0  0  0  0  0  0  0  0
   -0.0000    3.7500   -0.0000 O   0  0  0  0  0  0  0  0  0  0  0  0
    1.2990    6.0000   -0.0000 O   0  0  0  0  0  0  0  0  0  0  0  0
    3.8971    6.0000   -0.0000 C   0  0  0  0  0  0  0  0  0  0  0  0
   11.5024    4.3835   -0.0000 F   0  0  0  0  0  0  0  0  0  0  0  0
    2.5981    6.7500   -0.0000 C   0  0  0  0  0  0  0  0  0  0  0  0
    5.1962    6.7500   -0.0000 C   0  0  0  0  0  0  0  0  0  0  0  0
    2.5981    8.2500   -0.0000 C   0  0  0  0  0  0  0  0  0  0  0  0
    5.1962    8.2500   -0.0000 C   0  0  0  0  0  0  0  0  0  0  0  0
    3.8971    9.0000   -0.0000 C   0  0  0  0  0  0  0  0  0  0  0  0
  1  2  1  0  0  0  0
  1  3  1  0  0  0  0
  2  4  2  0  0  0  0
  2  5  1  0  0  0  0
  3  6  1  0  0  0  0
  3  7  2  0  0  0  0
  4  8  1  0  0  0  0
  5  9  1  0  0  0  0
  6 10  2  0  0  0  0
  7 11  1  0  0  0  0
  8 12  1  0  0  0  0
  9 13  2  0  0  0  0
  9 14  1  0  0  0  0
 11 15  2  0  0  0  0
 11 16  1  0  0  0  0
 12 17  2  0  0  0  0
 12 18  1  0  0  0  0
 13 19  1  0  0  0  0
 13 20  1  0  0  0  0
 14 21  2  0  0  0  0
 14 22  1  0  0  0  0
 15 23  1  0  0  0  0
 16 24  2  0  0  0  0
 18 25  1  0  0  0  0
 18 26  2  0  0  0  0
 19 27  2  0  0  0  0
 23 28  2  0  0  0  0
 25 29  2  0  0  0  0
 25 30  1  0  0  0  0
 26 31  1  0  0  0  0
 28 32  1  0  0  0  0
 30 33  1  0  0  0  0
 31 34  2  0  0  0  0
 33 35  2  0  0  0  0
 34 36  1  0  0  0  0
 35 37  1  0  0  0  0
  5  6  1  0  0  0  0
 21 27  1  0  0  0  0
 24 28  1  0  0  0  0
 31 33  1  0  0  0  0
 36 37  2  0  0  0  0
M  END
>  <S/N>
566

>  <Compound ID>
C_583

>  <PubChem CID>
155554792

>  <Isomeric SMILES>
CC1=C(C(=CC=C1)C)N\2C(=O)/C(=C/C3=CC=C(C=C3)F)/S/C2=N\NC(=O)C4=CC5=CC=CC=C5OC4=O

>  <IC50 (�M)>
0.09

>  <pIC50>
7.05

$$$$
C_584
Actelion Java MolfileCreator 1.0

 25 28  0  0  0  0  0  0  0  0999 V2000
    5.3077    4.8566   -0.0000 Br  0  0  0  0  0  0  0  0  0  0  0  0
    4.9010    3.9431   -0.0000 C   0  0  0  0  0  0  0  0  0  0  0  0
    3.9064    3.8385   -0.0000 C   0  0  0  0  0  0  0  0  0  0  0  0
    5.4887    3.1341   -0.0000 C   0  0  0  0  0  0  0  0  0  0  0  0
    3.4997    2.9250   -0.0000 C   0  0  0  0  0  0  0  0  0  0  0  0
    5.0820    2.2205   -0.0000 C   0  0  0  0  0  0  0  0  0  0  0  0
    4.0875    2.1160   -0.0000 C   0  0  0  0  0  0  0  0  0  0  0  0
    3.6808    1.2024   -0.0000 C   0  0  0  0  0  0  0  0  0  0  0  0
    2.7026    0.9945   -0.0000 N   0  0  0  0  0  0  0  0  0  0  0  0
    4.1808    0.3364   -0.0000 C   0  0  0  0  0  0  0  0  0  0  0  0
    2.5981   -0.0000   -0.0000 C   0  0  0  0  0  0  0  0  0  0  0  0
    3.5116   -0.4067   -0.0000 S   0  0  0  0  0  0  0  0  0  0  0  0
    1.7321   -0.5000   -0.0000 N   0  0  0  0  0  0  0  0  0  0  0  0
    0.8660   -0.0000   -0.0000 N   0  0  0  0  0  0  0  0  0  0  0  0
    0.0000   -0.5000   -0.0000 C   0  0  0  0  0  0  0  0  0  0  0  0
   -0.9135   -0.0933   -0.0000 C   0  0  0  0  0  0  0  0  0  0  0  0
   -0.1045   -1.4945   -0.0000 C   0  0  0  0  0  0  0  0  0  0  0  0
   -1.1215    0.8849   -0.0000 O   0  0  0  0  0  0  0  0  0  0  0  0
   -1.5827   -0.8364   -0.0000 N   0  0  0  0  0  0  0  0  0  0  0  0
   -1.0827   -1.7024   -0.0000 C   0  0  0  0  0  0  0  0  0  0  0  0
    0.5646   -2.2377   -0.0000 C   0  0  0  0  0  0  0  0  0  0  0  0
   -1.3917   -2.6535   -0.0000 C   0  0  0  0  0  0  0  0  0  0  0  0
    0.2556   -3.1887   -0.0000 C   0  0  0  0  0  0  0  0  0  0  0  0
   -0.7226   -3.3966   -0.0000 C   0  0  0  0  0  0  0  0  0  0  0  0
    0.9247   -3.9319   -0.0000 Cl  0  0  0  0  0  0  0  0  0  0  0  0
  1  2  1  0  0  0  0
  2  3  2  0  0  0  0
  2  4  1  0  0  0  0
  3  5  1  0  0  0  0
  4  6  2  0  0  0  0
  5  7  2  0  0  0  0
  7  8  1  0  0  0  0
  8  9  1  0  0  0  0
  8 10  2  0  0  0  0
  9 11  2  0  0  0  0
 10 12  1  0  0  0  0
 11 13  1  0  0  0  0
 13 14  2  3  0  0  0
 14 15  1  0  0  0  0
 15 16  2  0  0  0  0
 15 17  1  0  0  0  0
 16 18  1  0  0  0  0
 16 19  1  0  0  0  0
 17 20  2  0  0  0  0
 17 21  1  0  0  0  0
 20 22  1  0  0  0  0
 21 23  2  0  0  0  0
 22 24  2  0  0  0  0
 23 25  1  0  0  0  0
  6  7  1  0  0  0  0
 11 12  1  0  0  0  0
 19 20  1  0  0  0  0
 23 24  1  0  0  0  0
M  END
>  <S/N>
567

>  <Compound ID>
C_584

>  <PubChem CID>
155554991

>  <Isomeric SMILES>
C1=CC(=CC=C1C2=CSC(=N2)N=NC3=C(NC4=C3C=C(C=C4)Cl)O)Br

>  <IC50 (�M)>
5.3

>  <pIC50>
5.28

$$$$
C_585
Actelion Java MolfileCreator 1.0

 32 35  0  0  0  0  0  0  0  0999 V2000
   10.1904   -0.5093   -0.0000 Cl  0  0  0  0  0  0  0  0  0  0  0  0
   10.7782   -1.3183   -0.0000 C   0  0  0  0  0  0  0  0  0  0  0  0
   10.3714   -2.2319   -0.0000 C   0  0  0  0  0  0  0  0  0  0  0  0
   11.7727   -1.2138   -0.0000 C   0  0  0  0  0  0  0  0  0  0  0  0
    9.3769   -2.3364   -0.0000 C   0  0  0  0  0  0  0  0  0  0  0  0
   10.9592   -3.0409   -0.0000 C   0  0  0  0  0  0  0  0  0  0  0  0
   12.3605   -2.0228   -0.0000 C   0  0  0  0  0  0  0  0  0  0  0  0
    8.7078   -1.5933   -0.0000 O   0  0  0  0  0  0  0  0  0  0  0  0
    8.8769   -3.2024   -0.0000 N   0  0  0  0  0  0  0  0  0  0  0  0
   11.9537   -2.9364   -0.0000 C   0  0  0  0  0  0  0  0  0  0  0  0
    7.7942   -2.0000   -0.0000 C   0  0  0  0  0  0  0  0  0  0  0  0
    7.8988   -2.9945   -0.0000 N   0  0  0  0  0  0  0  0  0  0  0  0
    6.9282   -1.5000   -0.0000 C   0  0  0  0  0  0  0  0  0  0  0  0
    6.9282   -0.5000   -0.0000 C   0  0  0  0  0  0  0  0  0  0  0  0
    6.0622   -2.0000   -0.0000 C   0  0  0  0  0  0  0  0  0  0  0  0
    6.0622   -0.0000   -0.0000 C   0  0  0  0  0  0  0  0  0  0  0  0
    5.1962   -1.5000   -0.0000 C   0  0  0  0  0  0  0  0  0  0  0  0
    5.1962   -0.5000   -0.0000 C   0  0  0  0  0  0  0  0  0  0  0  0
    4.3301   -0.0000   -0.0000 C   0  0  0  0  0  0  0  0  0  0  0  0
    4.3301    1.0000   -0.0000 O   0  0  0  0  0  0  0  0  0  0  0  0
    3.4641   -0.5000   -0.0000 N   0  0  0  0  0  0  0  0  0  0  0  0
    2.5981   -0.0000   -0.0000 N   0  0  0  0  0  0  0  0  0  0  0  0
    1.7321   -0.5000   -0.0000 C   0  0  0  0  0  0  0  0  0  0  0  0
    1.7321   -1.5000   -0.0000 S   0  0  0  0  0  0  0  0  0  0  0  0
    0.8660   -0.0000   -0.0000 N   0  0  0  0  0  0  0  0  0  0  0  0
    0.0000   -0.5000   -0.0000 C   0  0  0  0  0  0  0  0  0  0  0  0
   -0.8660    0.0000   -0.0000 C   0  0  0  0  0  0  0  0  0  0  0  0
   -0.0000   -1.5000   -0.0000 C   0  0  0  0  0  0  0  0  0  0  0  0
   -1.7321   -0.5000   -0.0000 C   0  0  0  0  0  0  0  0  0  0  0  0
   -0.8660   -2.0000   -0.0000 C   0  0  0  0  0  0  0  0  0  0  0  0
   -1.7321   -1.5000   -0.0000 C   0  0  0  0  0  0  0  0  0  0  0  0
   -2.5981   -2.0000   -0.0000 Cl  0  0  0  0  0  0  0  0  0  0  0  0
  1  2  1  0  0  0  0
  2  3  2  0  0  0  0
  2  4  1  0  0  0  0
  3  5  1  0  0  0  0
  3  6  1  0  0  0  0
  4  7  2  0  0  0  0
  5  8  1  0  0  0  0
  5  9  2  0  0  0  0
  6 10  2  0  0  0  0
  8 11  1  0  0  0  0
  9 12  1  0  0  0  0
 11 13  1  0  0  0  0
 13 14  2  0  0  0  0
 13 15  1  0  0  0  0
 14 16  1  0  0  0  0
 15 17  2  0  0  0  0
 16 18  2  0  0  0  0
 18 19  1  0  0  0  0
 19 20  2  0  0  0  0
 19 21  1  0  0  0  0
 21 22  1  0  0  0  0
 22 23  1  0  0  0  0
 23 24  2  0  0  0  0
 23 25  1  0  0  0  0
 25 26  1  0  0  0  0
 26 27  2  0  0  0  0
 26 28  1  0  0  0  0
 27 29  1  0  0  0  0
 28 30  2  0  0  0  0
 29 31  2  0  0  0  0
 31 32  1  0  0  0  0
  7 10  1  0  0  0  0
 11 12  2  0  0  0  0
 17 18  1  0  0  0  0
 30 31  1  0  0  0  0
M  END
>  <S/N>
568

>  <Compound ID>
C_585

>  <PubChem CID>
155555150

>  <Isomeric SMILES>
C1=CC=C(C(=C1)C2=NN=C(O2)C3=CC=C(C=C3)C(=O)NNC(=S)NC4=CC=C(C=C4)Cl)Cl

>  <IC50 (�M)>
0.4

>  <pIC50>
6.4

$$$$
C_586
Actelion Java MolfileCreator 1.0

 40 46  0  0  0  0  0  0  0  0999 V2000
   -1.0809   -7.7213   -0.0000 Br  0  0  0  0  0  0  0  0  0  0  0  0
   -1.9625   -6.5078   -0.0000 C   0  0  0  0  0  0  0  0  0  0  0  0
   -1.3524   -5.1375   -0.0000 C   0  0  0  0  0  0  0  0  0  0  0  0
   -3.4543   -6.6646   -0.0000 C   0  0  0  0  0  0  0  0  0  0  0  0
   -2.2341   -3.9240   -0.0000 C   0  0  0  0  0  0  0  0  0  0  0  0
   -4.3360   -5.4511   -0.0000 C   0  0  0  0  0  0  0  0  0  0  0  0
   -1.6240   -2.5537   -0.0000 C   0  0  0  0  0  0  0  0  0  0  0  0
   -3.7259   -4.0808   -0.0000 C   0  0  0  0  0  0  0  0  0  0  0  0
   -2.3740   -1.2546   -0.0000 N   0  0  0  0  0  0  0  0  0  0  0  0
   -0.1568   -2.2418   -0.0000 C   0  0  0  0  0  0  0  0  0  0  0  0
   -1.3703   -0.1399   -0.0000 C   0  0  0  0  0  0  0  0  0  0  0  0
    0.9579   -3.2455   -0.0000 C   0  0  0  0  0  0  0  0  0  0  0  0
    0.0000   -0.7500   -0.0000 C   0  0  0  0  0  0  0  0  0  0  0  0
   -1.5271    1.3519   -0.0000 C   0  0  0  0  0  0  0  0  0  0  0  0
    0.8011   -4.7373   -0.0000 N   0  0  0  0  0  0  0  0  0  0  0  0
    2.4251   -2.9336   -0.0000 N   0  0  0  0  0  0  0  0  0  0  0  0
    1.2135    0.1317   -0.0000 C   0  0  0  0  0  0  0  0  0  0  0  0
   -0.3136    2.2336   -0.0000 C   0  0  0  0  0  0  0  0  0  0  0  0
    2.1715   -5.3474   -0.0000 C   0  0  0  0  0  0  0  0  0  0  0  0
    3.0353   -1.5633   -0.0000 C   0  0  0  0  0  0  0  0  0  0  0  0
    3.1751   -4.2326   -0.0000 C   0  0  0  0  0  0  0  0  0  0  0  0
    1.0567    1.6235   -0.0000 C   0  0  0  0  0  0  0  0  0  0  0  0
    2.4833   -6.8146   -0.0000 C   0  0  0  0  0  0  0  0  0  0  0  0
    4.5270   -1.4065   -0.0000 C   0  0  0  0  0  0  0  0  0  0  0  0
    2.1536   -0.3498   -0.0000 C   0  0  0  0  0  0  0  0  0  0  0  0
    4.6669   -4.3894   -0.0000 C   0  0  0  0  0  0  0  0  0  0  0  0
    1.3686   -7.8183   -0.0000 C   0  0  0  0  0  0  0  0  0  0  0  0
    3.9099   -7.2781   -0.0000 C   0  0  0  0  0  0  0  0  0  0  0  0
    5.1371   -0.0362   -0.0000 C   0  0  0  0  0  0  0  0  0  0  0  0
    2.7637    1.0206   -0.0000 C   0  0  0  0  0  0  0  0  0  0  0  0
    5.2770   -5.7598   -0.0000 C   0  0  0  0  0  0  0  0  0  0  0  0
    5.5486   -3.1759   -0.0000 C   0  0  0  0  0  0  0  0  0  0  0  0
    1.6805   -9.2855   -0.0000 C   0  0  0  0  0  0  0  0  0  0  0  0
    4.2218   -8.7453   -0.0000 C   0  0  0  0  0  0  0  0  0  0  0  0
    4.2555    1.1773   -0.0000 C   0  0  0  0  0  0  0  0  0  0  0  0
    6.7688   -5.9166   -0.0000 C   0  0  0  0  0  0  0  0  0  0  0  0
    7.0404   -3.3327   -0.0000 C   0  0  0  0  0  0  0  0  0  0  0  0
    3.1071   -9.7490   -0.0000 C   0  0  0  0  0  0  0  0  0  0  0  0
    4.8656    2.5477   -0.0000 Br  0  0  0  0  0  0  0  0  0  0  0  0
    7.6505   -4.7030   -0.0000 C   0  0  0  0  0  0  0  0  0  0  0  0
  1  2  1  0  0  0  0
  2  3  2  0  0  0  0
  2  4  1  0  0  0  0
  3  5  1  0  0  0  0
  4  6  2  0  0  0  0
  5  7  1  0  0  0  0
  5  8  2  0  0  0  0
  7  9  1  0  0  0  0
  7 10  2  0  0  0  0
  9 11  1  0  0  0  0
 10 12  1  0  0  0  0
 10 13  1  0  0  0  0
 11 14  2  0  0  0  0
 12 15  2  0  0  0  0
 12 16  1  0  0  0  0
 13 17  2  0  0  0  0
 14 18  1  0  0  0  0
 15 19  1  0  0  0  0
 16 20  1  0  0  0  0
 16 21  1  0  0  0  0
 17 22  1  0  0  0  0
 19 23  1  0  0  0  0
 20 24  2  0  0  0  0
 20 25  1  0  0  0  0
 21 26  1  0  0  0  0
 23 27  2  0  0  0  0
 23 28  1  0  0  0  0
 24 29  1  0  0  0  0
 25 30  2  0  0  0  0
 26 31  2  0  0  0  0
 26 32  1  0  0  0  0
 27 33  1  0  0  0  0
 28 34  2  0  0  0  0
 29 35  2  0  0  0  0
 31 36  1  0  0  0  0
 32 37  2  0  0  0  0
 33 38  2  0  0  0  0
 35 39  1  0  0  0  0
 36 40  2  0  0  0  0
  6  8  1  0  0  0  0
 11 13  1  0  0  0  0
 18 22  2  0  0  0  0
 19 21  2  0  0  0  0
 30 35  1  0  0  0  0
 34 38  1  0  0  0  0
 37 40  1  0  0  0  0
M  END
>  <S/N>
569

>  <Compound ID>
C_586

>  <PubChem CID>
155555166

>  <Isomeric SMILES>
C1=CC=C(C=C1)C2=C(N(C(=N2)C3=C(NC4=CC=CC=C43)C5=CC(=CC=C5)Br)C6=CC=C(C=C6)Br)C7=CC=CC=C7

>  <IC50 (�M)>
8.3

>  <pIC50>
5.08

$$$$
C_587
Actelion Java MolfileCreator 1.0

 24 27  0  0  0  0  0  0  0  0999 V2000
    6.8022   -3.4223   -0.0000 Cl  0  0  0  0  0  0  0  0  0  0  0  0
    6.3955   -2.5088   -0.0000 C   0  0  0  0  0  0  0  0  0  0  0  0
    6.9833   -1.6997   -0.0000 C   0  0  0  0  0  0  0  0  0  0  0  0
    5.4010   -2.4042   -0.0000 C   0  0  0  0  0  0  0  0  0  0  0  0
    6.5765   -0.7862   -0.0000 C   0  0  0  0  0  0  0  0  0  0  0  0
    4.9942   -1.4907   -0.0000 C   0  0  0  0  0  0  0  0  0  0  0  0
    5.5820   -0.6817   -0.0000 C   0  0  0  0  0  0  0  0  0  0  0  0
    5.1753    0.2319   -0.0000 C   0  0  0  0  0  0  0  0  0  0  0  0
    4.1808    0.3364   -0.0000 N   0  0  0  0  0  0  0  0  0  0  0  0
    3.6808    1.2024   -0.0000 N   0  0  0  0  0  0  0  0  0  0  0  0
    3.5116   -0.4067   -0.0000 C   0  0  0  0  0  0  0  0  0  0  0  0
    2.7026    0.9945   -0.0000 N   0  0  0  0  0  0  0  0  0  0  0  0
    2.5981   -0.0000   -0.0000 C   0  0  0  0  0  0  0  0  0  0  0  0
    1.7321   -0.5000   -0.0000 C   0  0  0  0  0  0  0  0  0  0  0  0
    0.8660   -0.0000   -0.0000 S   0  0  0  0  0  0  0  0  0  0  0  0
    0.0000   -0.5000   -0.0000 C   0  0  0  0  0  0  0  0  0  0  0  0
   -0.9135   -0.0933   -0.0000 S   0  0  0  0  0  0  0  0  0  0  0  0
   -0.1045   -1.4945   -0.0000 N   0  0  0  0  0  0  0  0  0  0  0  0
   -1.5827   -0.8364   -0.0000 C   0  0  0  0  0  0  0  0  0  0  0  0
   -1.0827   -1.7024   -0.0000 C   0  0  0  0  0  0  0  0  0  0  0  0
   -2.5827   -0.8364   -0.0000 C   0  0  0  0  0  0  0  0  0  0  0  0
   -1.5827   -2.5685   -0.0000 C   0  0  0  0  0  0  0  0  0  0  0  0
   -3.0827   -1.7024   -0.0000 C   0  0  0  0  0  0  0  0  0  0  0  0
   -2.5827   -2.5685   -0.0000 C   0  0  0  0  0  0  0  0  0  0  0  0
  1  2  1  0  0  0  0
  2  3  2  0  0  0  0
  2  4  1  0  0  0  0
  3  5  1  0  0  0  0
  4  6  2  0  0  0  0
  5  7  2  0  0  0  0
  7  8  1  0  0  0  0
  8  9  1  0  0  0  0
  9 10  1  0  0  0  0
  9 11  1  0  0  0  0
 10 12  2  0  0  0  0
 11 13  2  0  0  0  0
 13 14  1  0  0  0  0
 14 15  1  0  0  0  0
 15 16  1  0  0  0  0
 16 17  1  0  0  0  0
 16 18  2  0  0  0  0
 17 19  1  0  0  0  0
 18 20  1  0  0  0  0
 19 21  2  0  0  0  0
 20 22  2  0  0  0  0
 21 23  1  0  0  0  0
 22 24  1  0  0  0  0
  6  7  1  0  0  0  0
 12 13  1  0  0  0  0
 19 20  1  0  0  0  0
 23 24  2  0  0  0  0
M  END
>  <S/N>
570

>  <Compound ID>
C_587

>  <PubChem CID>
155555225

>  <Isomeric SMILES>
C1=CC=C2C(=C1)N=C(S2)SCC3=CN(N=N3)CC4=CC=C(C=C4)Cl

>  <IC50 (�M)>
20

>  <pIC50>
4.7

$$$$
C_588
Actelion Java MolfileCreator 1.0

 32 35  0  0  0  0  0  0  0  0999 V2000
   10.1904   -0.5093   -0.0000 Cl  0  0  0  0  0  0  0  0  0  0  0  0
   10.7782   -1.3183   -0.0000 C   0  0  0  0  0  0  0  0  0  0  0  0
   10.3714   -2.2319   -0.0000 C   0  0  0  0  0  0  0  0  0  0  0  0
   11.7727   -1.2138   -0.0000 C   0  0  0  0  0  0  0  0  0  0  0  0
    9.3769   -2.3364   -0.0000 C   0  0  0  0  0  0  0  0  0  0  0  0
   10.9592   -3.0409   -0.0000 C   0  0  0  0  0  0  0  0  0  0  0  0
   12.3605   -2.0228   -0.0000 C   0  0  0  0  0  0  0  0  0  0  0  0
    8.7078   -1.5933   -0.0000 O   0  0  0  0  0  0  0  0  0  0  0  0
    8.8769   -3.2024   -0.0000 N   0  0  0  0  0  0  0  0  0  0  0  0
   11.9537   -2.9364   -0.0000 C   0  0  0  0  0  0  0  0  0  0  0  0
    7.7942   -2.0000   -0.0000 C   0  0  0  0  0  0  0  0  0  0  0  0
    7.8988   -2.9945   -0.0000 N   0  0  0  0  0  0  0  0  0  0  0  0
    6.9282   -1.5000   -0.0000 C   0  0  0  0  0  0  0  0  0  0  0  0
    6.9282   -0.5000   -0.0000 C   0  0  0  0  0  0  0  0  0  0  0  0
    6.0622   -2.0000   -0.0000 C   0  0  0  0  0  0  0  0  0  0  0  0
    6.0622   -0.0000   -0.0000 C   0  0  0  0  0  0  0  0  0  0  0  0
    5.1962   -1.5000   -0.0000 C   0  0  0  0  0  0  0  0  0  0  0  0
    5.1962   -0.5000   -0.0000 C   0  0  0  0  0  0  0  0  0  0  0  0
    4.3301   -0.0000   -0.0000 C   0  0  0  0  0  0  0  0  0  0  0  0
    4.3301    1.0000   -0.0000 O   0  0  0  0  0  0  0  0  0  0  0  0
    3.4641   -0.5000   -0.0000 N   0  0  0  0  0  0  0  0  0  0  0  0
    2.5981   -0.0000   -0.0000 N   0  0  0  0  0  0  0  0  0  0  0  0
    1.7321   -0.5000   -0.0000 C   0  0  0  0  0  0  0  0  0  0  0  0
    1.7321   -1.5000   -0.0000 S   0  0  0  0  0  0  0  0  0  0  0  0
    0.8660   -0.0000   -0.0000 N   0  0  0  0  0  0  0  0  0  0  0  0
    0.0000   -0.5000   -0.0000 C   0  0  0  0  0  0  0  0  0  0  0  0
   -0.8660    0.0000   -0.0000 C   0  0  0  0  0  0  0  0  0  0  0  0
   -0.0000   -1.5000   -0.0000 C   0  0  0  0  0  0  0  0  0  0  0  0
   -1.7321   -0.5000   -0.0000 C   0  0  0  0  0  0  0  0  0  0  0  0
   -0.8660   -2.0000   -0.0000 C   0  0  0  0  0  0  0  0  0  0  0  0
   -2.5981    0.0000   -0.0000 F   0  0  0  0  0  0  0  0  0  0  0  0
   -1.7321   -1.5000   -0.0000 C   0  0  0  0  0  0  0  0  0  0  0  0
  1  2  1  0  0  0  0
  2  3  2  0  0  0  0
  2  4  1  0  0  0  0
  3  5  1  0  0  0  0
  3  6  1  0  0  0  0
  4  7  2  0  0  0  0
  5  8  1  0  0  0  0
  5  9  2  0  0  0  0
  6 10  2  0  0  0  0
  8 11  1  0  0  0  0
  9 12  1  0  0  0  0
 11 13  1  0  0  0  0
 13 14  2  0  0  0  0
 13 15  1  0  0  0  0
 14 16  1  0  0  0  0
 15 17  2  0  0  0  0
 16 18  2  0  0  0  0
 18 19  1  0  0  0  0
 19 20  2  0  0  0  0
 19 21  1  0  0  0  0
 21 22  1  0  0  0  0
 22 23  1  0  0  0  0
 23 24  2  0  0  0  0
 23 25  1  0  0  0  0
 25 26  1  0  0  0  0
 26 27  2  0  0  0  0
 26 28  1  0  0  0  0
 27 29  1  0  0  0  0
 28 30  2  0  0  0  0
 29 31  1  0  0  0  0
 29 32  2  0  0  0  0
  7 10  1  0  0  0  0
 11 12  2  0  0  0  0
 17 18  1  0  0  0  0
 30 32  1  0  0  0  0
M  END
>  <S/N>
571

>  <Compound ID>
C_588

>  <PubChem CID>
155555379

>  <Isomeric SMILES>
C1=CC=C(C(=C1)C2=NN=C(O2)C3=CC=C(C=C3)C(=O)NNC(=S)NC4=CC(=CC=C4)F)Cl

>  <IC50 (�M)>
0.4

>  <pIC50>
6.4

$$$$
C_589
Actelion Java MolfileCreator 1.0

 64 73  0  0  0  0  0  0  0  0999 V2000
    5.1962    1.5000   -0.0000 Br  0  0  0  0  0  0  0  0  0  0  0  0
    4.3301    1.0000   -0.0000 C   0  0  0  0  0  0  0  0  0  0  0  0
    3.4641    1.5000   -0.0000 C   0  0  0  0  0  0  0  0  0  0  0  0
    4.3301    0.0000   -0.0000 C   0  0  0  0  0  0  0  0  0  0  0  0
    2.5981    1.0000   -0.0000 C   0  0  0  0  0  0  0  0  0  0  0  0
    3.4641   -0.5000   -0.0000 C   0  0  0  0  0  0  0  0  0  0  0  0
    2.5981   -0.0000   -0.0000 C   0  0  0  0  0  0  0  0  0  0  0  0
    1.7321   -0.5000   -0.0000 C   0  0  0  0  0  0  0  0  0  0  0  0
    1.7321   -1.5000   -0.0000 N   0  0  0  0  0  0  0  0  0  0  0  0
    0.8660   -0.0000   -0.0000 N   0  0  0  0  0  0  0  0  0  0  0  0
    0.9230   -2.0878   -0.0000 N   0  0  0  0  0  0  0  0  0  0  0  0
    2.5411   -2.0878   -0.0000 C   0  0  0  0  0  0  0  0  0  0  0  0
    0.0000   -0.5000   -0.0000 C   0  0  0  0  0  0  0  0  0  0  0  0
    1.2321   -3.0388   -0.0000 C   0  0  0  0  0  0  0  0  0  0  0  0
    3.4921   -1.7788   -0.0000 S   0  0  0  0  0  0  0  0  0  0  0  0
    2.2321   -3.0388   -0.0000 O   0  0  0  0  0  0  0  0  0  0  0  0
   -0.8660    0.0000   -0.0000 C   0  0  0  0  0  0  0  0  0  0  0  0
   -0.0000   -1.5000   -0.0000 C   0  0  0  0  0  0  0  0  0  0  0  0
    0.6443   -3.8479   -0.0000 C   0  0  0  0  0  0  0  0  0  0  0  0
   -1.7321   -0.5000   -0.0000 C   0  0  0  0  0  0  0  0  0  0  0  0
   -0.8660   -2.0000   -0.0000 C   0  0  0  0  0  0  0  0  0  0  0  0
   -0.3503   -3.7433   -0.0000 C   0  0  0  0  0  0  0  0  0  0  0  0
    1.0510   -4.7614   -0.0000 C   0  0  0  0  0  0  0  0  0  0  0  0
   -1.7321   -1.5000   -0.0000 C   0  0  0  0  0  0  0  0  0  0  0  0
   -0.7570   -2.8298   -0.0000 O   0  0  0  0  0  0  0  0  0  0  0  0
   -0.9380   -4.5523   -0.0000 O   0  0  0  0  0  0  0  0  0  0  0  0
    0.4632   -5.5704   -0.0000 C   0  0  0  0  0  0  0  0  0  0  0  0
   -2.5981   -2.0000   -0.0000 C   0  0  0  0  0  0  0  0  0  0  0  0
   -0.5313   -5.4659   -0.0000 C   0  0  0  0  0  0  0  0  0  0  0  0
    0.8700   -6.4840   -0.0000 C   0  0  0  0  0  0  0  0  0  0  0  0
   -3.4641   -1.5000   -0.0000 C   0  0  0  0  0  0  0  0  0  0  0  0
   -2.5981   -3.0000   -0.0000 C   0  0  0  0  0  0  0  0  0  0  0  0
   -1.1191   -6.2749   -0.0000 C   0  0  0  0  0  0  0  0  0  0  0  0
    0.2822   -7.2930   -0.0000 C   0  0  0  0  0  0  0  0  0  0  0  0
   -4.3301   -2.0000   -0.0000 C   0  0  0  0  0  0  0  0  0  0  0  0
   -3.4641   -3.5000   -0.0000 C   0  0  0  0  0  0  0  0  0  0  0  0
   -0.7124   -7.1885   -0.0000 C   0  0  0  0  0  0  0  0  0  0  0  0
   -4.3301   -3.0000   -0.0000 C   0  0  0  0  0  0  0  0  0  0  0  0
   -5.1962   -3.5000   -0.0000 N   0  0  0  0  0  0  0  0  0  0  0  0
   -6.0622   -3.0000   -0.0000 C   0  0  0  0  0  0  0  0  0  0  0  0
   -6.9282   -3.5000   -0.0000 N   0  0  0  0  0  0  0  0  0  0  0  0
   -6.0622   -2.0000   -0.0000 C   0  0  0  0  0  0  0  0  0  0  0  0
   -7.8417   -3.0933   -0.0000 N   0  0  0  0  0  0  0  0  0  0  0  0
   -7.0327   -4.4945   -0.0000 C   0  0  0  0  0  0  0  0  0  0  0  0
   -6.9282   -1.5000   -0.0000 C   0  0  0  0  0  0  0  0  0  0  0  0
   -5.1962   -1.5000   -0.0000 C   0  0  0  0  0  0  0  0  0  0  0  0
   -8.5109   -3.8364   -0.0000 C   0  0  0  0  0  0  0  0  0  0  0  0
   -6.2896   -5.1637   -0.0000 S   0  0  0  0  0  0  0  0  0  0  0  0
   -8.0109   -4.7024   -0.0000 O   0  0  0  0  0  0  0  0  0  0  0  0
   -6.9282   -0.5000   -0.0000 C   0  0  0  0  0  0  0  0  0  0  0  0
   -5.1962   -0.5000   -0.0000 C   0  0  0  0  0  0  0  0  0  0  0  0
   -9.5054   -3.7319   -0.0000 C   0  0  0  0  0  0  0  0  0  0  0  0
   -6.0622    0.0000   -0.0000 C   0  0  0  0  0  0  0  0  0  0  0  0
   -9.9121   -2.8183   -0.0000 C   0  0  0  0  0  0  0  0  0  0  0  0
  -10.0932   -4.5409   -0.0000 C   0  0  0  0  0  0  0  0  0  0  0  0
   -6.0622    1.0000   -0.0000 Br  0  0  0  0  0  0  0  0  0  0  0  0
  -10.9067   -2.7138   -0.0000 C   0  0  0  0  0  0  0  0  0  0  0  0
   -9.3244   -2.0093   -0.0000 C   0  0  0  0  0  0  0  0  0  0  0  0
  -11.0877   -4.4364   -0.0000 C   0  0  0  0  0  0  0  0  0  0  0  0
  -11.4944   -3.5228   -0.0000 O   0  0  0  0  0  0  0  0  0  0  0  0
  -11.3134   -1.8003   -0.0000 C   0  0  0  0  0  0  0  0  0  0  0  0
   -9.7311   -1.0958   -0.0000 C   0  0  0  0  0  0  0  0  0  0  0  0
  -11.6755   -5.2454   -0.0000 O   0  0  0  0  0  0  0  0  0  0  0  0
  -10.7256   -0.9912   -0.0000 C   0  0  0  0  0  0  0  0  0  0  0  0
  1  2  1  0  0  0  0
  2  3  2  0  0  0  0
  2  4  1  0  0  0  0
  3  5  1  0  0  0  0
  4  6  2  0  0  0  0
  5  7  2  0  0  0  0
  7  8  1  0  0  0  0
  8  9  1  0  0  0  0
  8 10  1  0  0  0  0
  9 11  1  0  0  0  0
  9 12  1  0  0  0  0
 10 13  1  0  0  0  0
 11 14  2  0  0  0  0
 12 15  2  0  0  0  0
 12 16  1  0  0  0  0
 13 17  2  0  0  0  0
 13 18  1  0  0  0  0
 14 19  1  0  0  0  0
 17 20  1  0  0  0  0
 18 21  2  0  0  0  0
 19 22  1  0  0  0  0
 19 23  2  0  0  0  0
 20 24  2  0  0  0  0
 22 25  2  0  0  0  0
 22 26  1  0  0  0  0
 23 27  1  0  0  0  0
 24 28  1  0  0  0  0
 26 29  1  0  0  0  0
 27 30  2  0  0  0  0
 28 31  2  0  0  0  0
 28 32  1  0  0  0  0
 29 33  2  0  0  0  0
 30 34  1  0  0  0  0
 31 35  1  0  0  0  0
 32 36  2  0  0  0  0
 33 37  1  0  0  0  0
 35 38  2  0  0  0  0
 38 39  1  0  0  0  0
 39 40  1  0  0  0  0
 40 41  1  0  0  0  0
 40 42  1  0  0  0  0
 41 43  1  0  0  0  0
 41 44  1  0  0  0  0
 42 45  2  0  0  0  0
 42 46  1  0  0  0  0
 43 47  2  0  0  0  0
 44 48  2  0  0  0  0
 44 49  1  0  0  0  0
 45 50  1  0  0  0  0
 46 51  2  0  0  0  0
 47 52  1  0  0  0  0
 50 53  2  0  0  0  0
 52 54  1  0  0  0  0
 52 55  2  0  0  0  0
 53 56  1  0  0  0  0
 54 57  2  0  0  0  0
 54 58  1  0  0  0  0
 55 59  1  0  0  0  0
 57 60  1  0  0  0  0
 57 61  1  0  0  0  0
 58 62  2  0  0  0  0
 59 63  2  0  0  0  0
 61 64  2  0  0  0  0
  6  7  1  0  0  0  0
 14 16  1  0  0  0  0
 21 24  1  0  0  0  0
 27 29  1  0  0  0  0
 34 37  2  0  0  0  0
 36 38  1  0  0  0  0
 47 49  1  0  0  0  0
 51 53  1  0  0  0  0
 59 60  1  0  0  0  0
 62 64  1  0  0  0  0
M  END
>  <S/N>
572

>  <Compound ID>
C_589

>  <PubChem CID>
155555472

>  <Isomeric SMILES>
C1=CC=C2C(=C1)C=C(C(=O)O2)C3=NN(C(=S)O3)C(C4=CC=C(C=C4)Br)NC5=CC=C(C=C5)C6=CC=C(C=C6)NC(C7=CC=C(C=C7)Br)N8C(=S)OC(=N8)C9=CC(=O)OC1=CC=CC=C19

>  <IC50 (�M)>
0.07

>  <pIC50>
7.15

$$$$
C_590
Actelion Java MolfileCreator 1.0

 62 70  0  0  0  0  0  0  0  0999 V2000
    3.7195   -1.3849   -0.0000 S   0  0  0  0  0  0  0  0  0  0  0  0
    3.5116   -0.4067   -0.0000 C   0  0  0  0  0  0  0  0  0  0  0  0
    4.1808    0.3364   -0.0000 O   0  0  0  0  0  0  0  0  0  0  0  0
    2.5981   -0.0000   -0.0000 N   0  0  0  0  0  0  0  0  0  0  0  0
    3.6808    1.2024   -0.0000 C   0  0  0  0  0  0  0  0  0  0  0  0
    2.7026    0.9945   -0.0000 N   0  0  0  0  0  0  0  0  0  0  0  0
    1.7321   -0.5000   -0.0000 C   0  0  0  0  0  0  0  0  0  0  0  0
    4.0875    2.1160   -0.0000 C   0  0  0  0  0  0  0  0  0  0  0  0
    0.8660   -0.0000   -0.0000 N   0  0  0  0  0  0  0  0  0  0  0  0
    1.7321   -1.5000   -0.0000 C   0  0  0  0  0  0  0  0  0  0  0  0
    5.0820    2.2205   -0.0000 C   0  0  0  0  0  0  0  0  0  0  0  0
    3.4997    2.9250   -0.0000 C   0  0  0  0  0  0  0  0  0  0  0  0
    0.0000   -0.5000   -0.0000 C   0  0  0  0  0  0  0  0  0  0  0  0
    0.8660   -2.0000   -0.0000 C   0  0  0  0  0  0  0  0  0  0  0  0
    2.5981   -2.0000   -0.0000 C   0  0  0  0  0  0  0  0  0  0  0  0
    5.6698    1.4115   -0.0000 O   0  0  0  0  0  0  0  0  0  0  0  0
    5.4887    3.1341   -0.0000 O   0  0  0  0  0  0  0  0  0  0  0  0
    3.9064    3.8385   -0.0000 C   0  0  0  0  0  0  0  0  0  0  0  0
   -0.8660    0.0000   -0.0000 C   0  0  0  0  0  0  0  0  0  0  0  0
   -0.0000   -1.5000   -0.0000 C   0  0  0  0  0  0  0  0  0  0  0  0
    0.8660   -3.0000   -0.0000 C   0  0  0  0  0  0  0  0  0  0  0  0
    2.5981   -3.0000   -0.0000 C   0  0  0  0  0  0  0  0  0  0  0  0
    4.9010    3.9431   -0.0000 C   0  0  0  0  0  0  0  0  0  0  0  0
    3.3187    4.6476   -0.0000 C   0  0  0  0  0  0  0  0  0  0  0  0
   -1.7321   -0.5000   -0.0000 C   0  0  0  0  0  0  0  0  0  0  0  0
   -0.8660   -2.0000   -0.0000 C   0  0  0  0  0  0  0  0  0  0  0  0
    1.7321   -3.5000   -0.0000 C   0  0  0  0  0  0  0  0  0  0  0  0
    5.3077    4.8566   -0.0000 C   0  0  0  0  0  0  0  0  0  0  0  0
    3.7254    5.5611   -0.0000 C   0  0  0  0  0  0  0  0  0  0  0  0
   -1.7321   -1.5000   -0.0000 C   0  0  0  0  0  0  0  0  0  0  0  0
    1.7321   -4.5000   -0.0000 N   0  0  0  0  0  0  0  0  0  0  0  0
    4.7199    5.6656   -0.0000 C   0  0  0  0  0  0  0  0  0  0  0  0
   -2.5981   -2.0000   -0.0000 N   0  0  0  0  0  0  0  0  0  0  0  0
    0.8660   -5.0000   -0.0000 O   0  0  0  0  0  0  0  0  0  0  0  0
    2.5981   -5.0000   -0.0000 O   0  0  0  0  0  0  0  0  0  0  0  0
   -3.4641   -1.5000   -0.0000 C   0  0  0  0  0  0  0  0  0  0  0  0
   -3.4641   -0.5000   -0.0000 N   0  0  0  0  0  0  0  0  0  0  0  0
   -4.3301   -2.0000   -0.0000 C   0  0  0  0  0  0  0  0  0  0  0  0
   -2.6551    0.0878   -0.0000 N   0  0  0  0  0  0  0  0  0  0  0  0
   -4.2731    0.0878   -0.0000 C   0  0  0  0  0  0  0  0  0  0  0  0
   -5.1962   -1.5000   -0.0000 C   0  0  0  0  0  0  0  0  0  0  0  0
   -4.3301   -3.0000   -0.0000 C   0  0  0  0  0  0  0  0  0  0  0  0
   -2.9641    1.0388   -0.0000 C   0  0  0  0  0  0  0  0  0  0  0  0
   -5.2242   -0.2212   -0.0000 S   0  0  0  0  0  0  0  0  0  0  0  0
   -3.9641    1.0388   -0.0000 O   0  0  0  0  0  0  0  0  0  0  0  0
   -6.0622   -2.0000   -0.0000 C   0  0  0  0  0  0  0  0  0  0  0  0
   -5.1962   -3.5000   -0.0000 C   0  0  0  0  0  0  0  0  0  0  0  0
   -2.3763    1.8479   -0.0000 C   0  0  0  0  0  0  0  0  0  0  0  0
   -6.0622   -3.0000   -0.0000 C   0  0  0  0  0  0  0  0  0  0  0  0
   -1.3818    1.7433   -0.0000 C   0  0  0  0  0  0  0  0  0  0  0  0
   -2.7831    2.7614   -0.0000 C   0  0  0  0  0  0  0  0  0  0  0  0
   -6.9282   -3.5000   -0.0000 N   0  0  0  0  0  0  0  0  0  0  0  0
   -0.7940    2.5523   -0.0000 C   0  0  0  0  0  0  0  0  0  0  0  0
   -0.9751    0.8298   -0.0000 C   0  0  0  0  0  0  0  0  0  0  0  0
   -2.1953    3.5704   -0.0000 C   0  0  0  0  0  0  0  0  0  0  0  0
   -7.7942   -3.0000   -0.0000 O   0  0  0  0  0  0  0  0  0  0  0  0
   -6.9282   -4.5000   -0.0000 O   0  0  0  0  0  0  0  0  0  0  0  0
   -1.2007    3.4659   -0.0000 O   0  0  0  0  0  0  0  0  0  0  0  0
    0.2005    2.4478   -0.0000 C   0  0  0  0  0  0  0  0  0  0  0  0
    0.0195    0.7253   -0.0000 C   0  0  0  0  0  0  0  0  0  0  0  0
   -2.6020    4.4840   -0.0000 O   0  0  0  0  0  0  0  0  0  0  0  0
    0.6072    1.5343   -0.0000 C   0  0  0  0  0  0  0  0  0  0  0  0
  1  2  2  0  0  0  0
  2  3  1  0  0  0  0
  2  4  1  0  0  0  0
  3  5  1  0  0  0  0
  4  6  1  0  0  0  0
  4  7  1  0  0  0  0
  5  8  1  0  0  0  0
  7  9  1  0  0  0  0
  7 10  1  0  0  0  0
  8 11  1  0  0  0  0
  8 12  2  0  0  0  0
  9 13  1  0  0  0  0
 10 14  2  0  0  0  0
 10 15  1  0  0  0  0
 11 16  2  0  0  0  0
 11 17  1  0  0  0  0
 12 18  1  0  0  0  0
 13 19  2  0  0  0  0
 13 20  1  0  0  0  0
 14 21  1  0  0  0  0
 15 22  2  0  0  0  0
 17 23  1  0  0  0  0
 18 24  1  0  0  0  0
 19 25  1  0  0  0  0
 20 26  2  0  0  0  0
 21 27  2  0  0  0  0
 23 28  1  0  0  0  0
 24 29  2  0  0  0  0
 25 30  2  0  0  0  0
 27 31  1  0  0  0  0
 28 32  2  0  0  0  0
 30 33  1  0  0  0  0
 31 34  2  0  0  0  0
 31 35  1  0  0  0  0
 33 36  1  0  0  0  0
 36 37  1  0  0  0  0
 36 38  1  0  0  0  0
 37 39  1  0  0  0  0
 37 40  1  0  0  0  0
 38 41  2  0  0  0  0
 38 42  1  0  0  0  0
 39 43  2  0  0  0  0
 40 44  2  0  0  0  0
 40 45  1  0  0  0  0
 41 46  1  0  0  0  0
 42 47  2  0  0  0  0
 43 48  1  0  0  0  0
 46 49  2  0  0  0  0
 48 50  1  0  0  0  0
 48 51  2  0  0  0  0
 49 52  1  0  0  0  0
 50 53  2  0  0  0  0
 50 54  1  0  0  0  0
 51 55  1  0  0  0  0
 52 56  2  0  0  0  0
 52 57  1  0  0  0  0
 53 58  1  0  0  0  0
 53 59  1  0  0  0  0
 54 60  2  0  0  0  0
 55 61  2  0  0  0  0
 59 62  2  0  0  0  0
  5  6  2  0  0  0  0
 18 23  2  0  0  0  0
 22 27  1  0  0  0  0
 26 30  1  0  0  0  0
 29 32  1  0  0  0  0
 43 45  1  0  0  0  0
 47 49  1  0  0  0  0
 55 58  1  0  0  0  0
 60 62  1  0  0  0  0
M  CHG  4  31   1  35  -1  52   1  57  -1
M  END
>  <S/N>
573

>  <Compound ID>
C_590

>  <PubChem CID>
155555653

>  <Isomeric SMILES>
C1=CC=C2C(=C1)C=C(C(=O)O2)C3=NN(C(=S)O3)C(C4=CC=C(C=C4)[N+](=O)[O-])NC5=CC=C(C=C5)NC(C6=CC=C(C=C6)[N+](=O)[O-])N7C(=S)OC(=N7)C8=CC(=O)OC9=CC=CC=C98

>  <IC50 (�M)>
0.07

>  <pIC50>
7.15

$$$$
C_591
Actelion Java MolfileCreator 1.0

 28 31  0  0  0  0  0  0  0  0999 V2000
    5.6808    2.9345   -0.0000 Cl  0  0  0  0  0  0  0  0  0  0  0  0
    5.1808    2.0685   -0.0000 C   0  0  0  0  0  0  0  0  0  0  0  0
    4.1808    2.0685   -0.0000 C   0  0  0  0  0  0  0  0  0  0  0  0
    5.6808    1.2024   -0.0000 C   0  0  0  0  0  0  0  0  0  0  0  0
    3.6808    1.2024   -0.0000 C   0  0  0  0  0  0  0  0  0  0  0  0
    5.1808    0.3364   -0.0000 C   0  0  0  0  0  0  0  0  0  0  0  0
    2.7026    0.9945   -0.0000 N   0  0  0  0  0  0  0  0  0  0  0  0
    4.1808    0.3364   -0.0000 C   0  0  0  0  0  0  0  0  0  0  0  0
    2.5981   -0.0000   -0.0000 C   0  0  0  0  0  0  0  0  0  0  0  0
    3.5116   -0.4067   -0.0000 S   0  0  0  0  0  0  0  0  0  0  0  0
    1.7321   -0.5000   -0.0000 S   0  0  0  0  0  0  0  0  0  0  0  0
    0.8660   -0.0000   -0.0000 C   0  0  0  0  0  0  0  0  0  0  0  0
    0.0000   -0.5000   -0.0000 C   0  0  0  0  0  0  0  0  0  0  0  0
   -0.9135   -0.0933   -0.0000 N   0  0  0  0  0  0  0  0  0  0  0  0
   -0.1045   -1.4945   -0.0000 C   0  0  0  0  0  0  0  0  0  0  0  0
   -1.5827   -0.8364   -0.0000 N   0  0  0  0  0  0  0  0  0  0  0  0
   -1.0827   -1.7024   -0.0000 N   0  0  0  0  0  0  0  0  0  0  0  0
   -1.4894   -2.6160   -0.0000 C   0  0  0  0  0  0  0  0  0  0  0  0
   -0.9016   -3.4250   -0.0000 C   0  0  0  0  0  0  0  0  0  0  0  0
   -1.3084   -4.3385   -0.0000 C   0  0  0  0  0  0  0  0  0  0  0  0
    0.0929   -3.3205   -0.0000 C   0  0  0  0  0  0  0  0  0  0  0  0
   -0.7206   -5.1476   -0.0000 C   0  0  0  0  0  0  0  0  0  0  0  0
    0.6807   -4.1295   -0.0000 C   0  0  0  0  0  0  0  0  0  0  0  0
    0.2739   -5.0430   -0.0000 C   0  0  0  0  0  0  0  0  0  0  0  0
    0.8617   -5.8520   -0.0000 C   0  0  0  0  0  0  0  0  0  0  0  0
    1.6707   -5.2643   -0.0000 C   0  0  0  0  0  0  0  0  0  0  0  0
    1.4495   -6.6611   -0.0000 C   0  0  0  0  0  0  0  0  0  0  0  0
    0.0527   -6.4398   -0.0000 C   0  0  0  0  0  0  0  0  0  0  0  0
  1  2  1  0  0  0  0
  2  3  2  0  0  0  0
  2  4  1  0  0  0  0
  3  5  1  0  0  0  0
  4  6  2  0  0  0  0
  5  7  1  0  0  0  0
  5  8  2  0  0  0  0
  7  9  2  0  0  0  0
  8 10  1  0  0  0  0
  9 11  1  0  0  0  0
 11 12  1  0  0  0  0
 12 13  1  0  0  0  0
 13 14  1  0  0  0  0
 13 15  2  0  0  0  0
 14 16  2  0  0  0  0
 15 17  1  0  0  0  0
 17 18  1  0  0  0  0
 18 19  1  0  0  0  0
 19 20  2  0  0  0  0
 19 21  1  0  0  0  0
 20 22  1  0  0  0  0
 21 23  2  0  0  0  0
 22 24  2  0  0  0  0
 24 25  1  0  0  0  0
 25 26  1  0  0  0  0
 25 27  1  0  0  0  0
 25 28  1  0  0  0  0
  6  8  1  0  0  0  0
  9 10  1  0  0  0  0
 16 17  1  0  0  0  0
 23 24  1  0  0  0  0
M  END
>  <S/N>
574

>  <Compound ID>
C_591

>  <PubChem CID>
155555852

>  <Isomeric SMILES>
CC(C)(C)C1=CC=C(C=C1)CN2C=C(N=N2)CSC3=NC4=C(S3)C=CC(=C4)Cl

>  <IC50 (�M)>
20

>  <pIC50>
4.7

$$$$
C_592
Actelion Java MolfileCreator 1.0

 40 47  0  0  0  0  0  0  0  0999 V2000
    7.8655   -2.3899   -0.0000 O   0  0  0  0  0  0  0  0  0  0  0  0
    6.4952   -3.0000   -0.0000 C   0  0  0  0  0  0  0  0  0  0  0  0
    8.8692   -3.5046   -0.0000 C   0  0  0  0  0  0  0  0  0  0  0  0
    6.6520   -4.4918   -0.0000 N   0  0  0  0  0  0  0  0  0  0  0  0
    5.1962   -2.2500   -0.0000 C   0  0  0  0  0  0  0  0  0  0  0  0
    8.1192   -4.8037   -0.0000 N   0  0  0  0  0  0  0  0  0  0  0  0
   10.3610   -3.3478   -0.0000 C   0  0  0  0  0  0  0  0  0  0  0  0
    5.1962   -0.7500   -0.0000 C   0  0  0  0  0  0  0  0  0  0  0  0
    3.8971   -3.0000   -0.0000 C   0  0  0  0  0  0  0  0  0  0  0  0
   11.3647   -4.4625   -0.0000 C   0  0  0  0  0  0  0  0  0  0  0  0
   11.1110   -2.0488   -0.0000 C   0  0  0  0  0  0  0  0  0  0  0  0
    3.8971    0.0000   -0.0000 C   0  0  0  0  0  0  0  0  0  0  0  0
    2.5981   -2.2500   -0.0000 C   0  0  0  0  0  0  0  0  0  0  0  0
   12.7350   -3.8524   -0.0000 C   0  0  0  0  0  0  0  0  0  0  0  0
   11.2079   -5.9543   -0.0000 C   0  0  0  0  0  0  0  0  0  0  0  0
   12.5782   -2.3606   -0.0000 N   0  0  0  0  0  0  0  0  0  0  0  0
    2.5981   -0.7500   -0.0000 C   0  0  0  0  0  0  0  0  0  0  0  0
   13.9485   -4.7341   -0.0000 C   0  0  0  0  0  0  0  0  0  0  0  0
   12.4214   -6.8360   -0.0000 C   0  0  0  0  0  0  0  0  0  0  0  0
   13.6929   -1.3570   -0.0000 C   0  0  0  0  0  0  0  0  0  0  0  0
    1.2990   -0.0000   -0.0000 C   0  0  0  0  0  0  0  0  0  0  0  0
   13.7917   -6.2259   -0.0000 C   0  0  0  0  0  0  0  0  0  0  0  0
    1.2990    1.5000   -0.0000 C   0  0  0  0  0  0  0  0  0  0  0  0
    0.0000   -0.7500   -0.0000 C   0  0  0  0  0  0  0  0  0  0  0  0
    2.5126    2.3817   -0.0000 C   0  0  0  0  0  0  0  0  0  0  0  0
    0.0855    2.3817   -0.0000 C   0  0  0  0  0  0  0  0  0  0  0  0
   -1.3703   -0.1399   -0.0000 C   0  0  0  0  0  0  0  0  0  0  0  0
   -0.1568   -2.2418   -0.0000 C   0  0  0  0  0  0  0  0  0  0  0  0
    2.0490    3.8083   -0.0000 C   0  0  0  0  0  0  0  0  0  0  0  0
    3.9798    2.0698   -0.0000 C   0  0  0  0  0  0  0  0  0  0  0  0
    0.5490    3.8083   -0.0000 N   0  0  0  0  0  0  0  0  0  0  0  0
   -2.3740   -1.2546   -0.0000 C   0  0  0  0  0  0  0  0  0  0  0  0
   -1.8338    1.2867   -0.0000 C   0  0  0  0  0  0  0  0  0  0  0  0
   -1.6240   -2.5537   -0.0000 N   0  0  0  0  0  0  0  0  0  0  0  0
    3.0527    4.9230   -0.0000 C   0  0  0  0  0  0  0  0  0  0  0  0
    4.9835    3.1845   -0.0000 C   0  0  0  0  0  0  0  0  0  0  0  0
   -3.8412   -0.9427   -0.0000 C   0  0  0  0  0  0  0  0  0  0  0  0
   -3.3011    1.5986   -0.0000 C   0  0  0  0  0  0  0  0  0  0  0  0
    4.5200    4.6111   -0.0000 C   0  0  0  0  0  0  0  0  0  0  0  0
   -4.3048    0.4838   -0.0000 C   0  0  0  0  0  0  0  0  0  0  0  0
  1  2  1  0  0  0  0
  1  3  1  0  0  0  0
  2  4  2  0  0  0  0
  2  5  1  0  0  0  0
  3  6  2  0  0  0  0
  3  7  1  0  0  0  0
  5  8  2  0  0  0  0
  5  9  1  0  0  0  0
  7 10  1  0  0  0  0
  7 11  2  0  0  0  0
  8 12  1  0  0  0  0
  9 13  2  0  0  0  0
 10 14  2  0  0  0  0
 10 15  1  0  0  0  0
 11 16  1  0  0  0  0
 12 17  2  0  0  0  0
 14 18  1  0  0  0  0
 15 19  2  0  0  0  0
 16 20  1  0  0  0  0
 17 21  1  0  0  0  0
 18 22  2  0  0  0  0
 21 23  1  0  0  0  0
 21 24  1  0  0  0  0
 23 25  1  0  0  0  0
 23 26  2  0  0  0  0
 24 27  1  0  0  0  0
 24 28  2  0  0  0  0
 25 29  2  0  0  0  0
 25 30  1  0  0  0  0
 26 31  1  0  0  0  0
 27 32  2  0  0  0  0
 27 33  1  0  0  0  0
 28 34  1  0  0  0  0
 29 35  1  0  0  0  0
 30 36  2  0  0  0  0
 32 37  1  0  0  0  0
 33 38  2  0  0  0  0
 35 39  2  0  0  0  0
 37 40  2  0  0  0  0
  4  6  1  0  0  0  0
 13 17  1  0  0  0  0
 14 16  1  0  0  0  0
 19 22  1  0  0  0  0
 29 31  1  0  0  0  0
 32 34  1  0  0  0  0
 36 39  1  0  0  0  0
 38 40  1  0  0  0  0
M  END
>  <S/N>
575

>  <Compound ID>
C_592

>  <PubChem CID>
155555930

>  <Isomeric SMILES>
CN1C=C(C2=CC=CC=C21)C3=NN=C(O3)C4=CC=C(C=C4)C(C5=CNC6=CC=CC=C65)C7=CNC8=CC=CC=C87

>  <IC50 (�M)>
20

>  <pIC50>
4.7

$$$$
C_593
Actelion Java MolfileCreator 1.0

 25 27  0  0  1  0  0  0  0  0999 V2000
    6.0622   -2.0000   -0.0000 Br  0  0  0  0  0  0  0  0  0  0  0  0
    5.1962   -1.5000   -0.0000 C   0  0  0  0  0  0  0  0  0  0  0  0
    5.1962   -0.5000   -0.0000 C   0  0  0  0  0  0  0  0  0  0  0  0
    4.3301   -2.0000   -0.0000 C   0  0  0  0  0  0  0  0  0  0  0  0
    4.3301    0.0000   -0.0000 C   0  0  0  0  0  0  0  0  0  0  0  0
    3.4641   -1.5000   -0.0000 C   0  0  0  0  0  0  0  0  0  0  0  0
    4.3301    1.0000   -0.0000 O   0  0  0  0  0  0  0  0  0  0  0  0
    3.4641   -0.5000   -0.0000 C   0  0  0  0  0  0  0  0  0  0  0  0
    3.4641    1.5000   -0.0000 C   0  0  0  0  0  0  0  0  0  0  0  0
    2.5981   -0.0000   -0.0000 O   0  0  0  0  0  0  0  0  0  0  0  0
    1.7321   -0.5000   -0.0000 C   0  0  0  0  0  0  0  0  0  0  0  0
    0.8660   -0.0000   -0.0000 C   0  0  0  0  0  0  0  0  0  0  0  0
    1.7321   -1.5000   -0.0000 C   0  0  0  0  0  0  0  0  0  0  0  0
    0.0000   -0.5000   -0.0000 N   0  0  0  0  0  0  0  0  0  0  0  0
   -0.9135   -0.0933   -0.0000 N   0  0  0  0  0  0  0  0  0  0  0  0
   -0.1045   -1.4945   -0.0000 C   0  0  0  0  0  0  0  0  0  0  0  0
   -1.5827   -0.8364   -0.0000 N   0  0  0  0  0  0  0  0  0  0  0  0
   -1.0827   -1.7024   -0.0000 C   0  0  0  0  0  0  0  0  0  0  0  0
   -1.4894   -2.6160   -0.0000 C   0  0  0  0  0  0  0  0  0  0  0  0
   -2.4839   -2.7205   -0.0000 C   0  0  0  0  0  0  0  0  0  0  0  0
   -0.9016   -3.4250   -0.0000 C   0  0  0  0  0  0  0  0  0  0  0  0
   -2.8907   -3.6341   -0.0000 C   0  0  0  0  0  0  0  0  0  0  0  0
   -1.3084   -4.3385   -0.0000 C   0  0  0  0  0  0  0  0  0  0  0  0
   -2.3029   -4.4431   -0.0000 C   0  0  0  0  0  0  0  0  0  0  0  0
   -2.7096   -5.3566   -0.0000 F   0  0  0  0  0  0  0  0  0  0  0  0
  1  2  1  0  0  0  0
  2  3  2  0  0  0  0
  2  4  1  0  0  0  0
  3  5  1  0  0  0  0
  4  6  2  0  0  0  0
  5  7  1  0  0  0  0
  5  8  2  0  0  0  0
  7  9  1  0  0  0  0
  8 10  1  0  0  0  0
 10 11  1  0  0  0  0
 11 12  1  0  0  0  0
 11 13  1  6  0  0  0
 12 14  1  0  0  0  0
 14 15  1  0  0  0  0
 14 16  1  0  0  0  0
 15 17  2  0  0  0  0
 16 18  2  0  0  0  0
 18 19  1  0  0  0  0
 19 20  2  0  0  0  0
 19 21  1  0  0  0  0
 20 22  1  0  0  0  0
 21 23  2  0  0  0  0
 22 24  2  0  0  0  0
 24 25  1  0  0  0  0
  6  8  1  0  0  0  0
 17 18  1  0  0  0  0
 23 24  1  0  0  0  0
M  END
>  <S/N>
576

>  <Compound ID>
C_593

>  <PubChem CID>
155556035

>  <Isomeric SMILES>
C[C@H](CN1C=C(N=N1)C2=CC=C(C=C2)F)OC3=C(C=C(C=C3)Br)OC

>  <IC50 (�M)>
14

>  <pIC50>
4.85

$$$$
C_594
Actelion Java MolfileCreator 1.0

 32 35  0  0  0  0  0  0  0  0999 V2000
    6.0622    1.0000   -0.0000 Cl  0  0  0  0  0  0  0  0  0  0  0  0
    6.0622    0.0000   -0.0000 C   0  0  0  0  0  0  0  0  0  0  0  0
    5.1962   -0.5000   -0.0000 C   0  0  0  0  0  0  0  0  0  0  0  0
    6.9282   -0.5000   -0.0000 C   0  0  0  0  0  0  0  0  0  0  0  0
    4.3301   -0.0000   -0.0000 N   0  0  0  0  0  0  0  0  0  0  0  0
    5.1962   -1.5000   -0.0000 C   0  0  0  0  0  0  0  0  0  0  0  0
    6.9282   -1.5000   -0.0000 C   0  0  0  0  0  0  0  0  0  0  0  0
    3.4641   -0.5000   -0.0000 C   0  0  0  0  0  0  0  0  0  0  0  0
    6.0622   -2.0000   -0.0000 C   0  0  0  0  0  0  0  0  0  0  0  0
    3.4641   -1.5000   -0.0000 S   0  0  0  0  0  0  0  0  0  0  0  0
    2.5981   -0.0000   -0.0000 N   0  0  0  0  0  0  0  0  0  0  0  0
    1.7321   -0.5000   -0.0000 N   0  0  0  0  0  0  0  0  0  0  0  0
    0.8660   -0.0000   -0.0000 C   0  0  0  0  0  0  0  0  0  0  0  0
    0.8660    1.0000   -0.0000 O   0  0  0  0  0  0  0  0  0  0  0  0
    0.0000   -0.5000   -0.0000 C   0  0  0  0  0  0  0  0  0  0  0  0
   -0.8660    0.0000   -0.0000 C   0  0  0  0  0  0  0  0  0  0  0  0
   -0.0000   -1.5000   -0.0000 C   0  0  0  0  0  0  0  0  0  0  0  0
   -1.7321   -0.5000   -0.0000 C   0  0  0  0  0  0  0  0  0  0  0  0
   -0.8660   -2.0000   -0.0000 C   0  0  0  0  0  0  0  0  0  0  0  0
   -1.7321   -1.5000   -0.0000 C   0  0  0  0  0  0  0  0  0  0  0  0
   -2.5981   -2.0000   -0.0000 C   0  0  0  0  0  0  0  0  0  0  0  0
   -3.5116   -1.5933   -0.0000 O   0  0  0  0  0  0  0  0  0  0  0  0
   -2.7026   -2.9945   -0.0000 N   0  0  0  0  0  0  0  0  0  0  0  0
   -4.1808   -2.3364   -0.0000 C   0  0  0  0  0  0  0  0  0  0  0  0
   -3.6808   -3.2024   -0.0000 N   0  0  0  0  0  0  0  0  0  0  0  0
   -5.1753   -2.2319   -0.0000 C   0  0  0  0  0  0  0  0  0  0  0  0
   -5.5820   -1.3183   -0.0000 C   0  0  0  0  0  0  0  0  0  0  0  0
   -5.7631   -3.0409   -0.0000 C   0  0  0  0  0  0  0  0  0  0  0  0
   -4.9942   -0.5093   -0.0000 Cl  0  0  0  0  0  0  0  0  0  0  0  0
   -6.5765   -1.2138   -0.0000 C   0  0  0  0  0  0  0  0  0  0  0  0
   -6.7576   -2.9364   -0.0000 C   0  0  0  0  0  0  0  0  0  0  0  0
   -7.1643   -2.0228   -0.0000 C   0  0  0  0  0  0  0  0  0  0  0  0
  1  2  1  0  0  0  0
  2  3  2  0  0  0  0
  2  4  1  0  0  0  0
  3  5  1  0  0  0  0
  3  6  1  0  0  0  0
  4  7  2  0  0  0  0
  5  8  1  0  0  0  0
  6  9  2  0  0  0  0
  8 10  2  0  0  0  0
  8 11  1  0  0  0  0
 11 12  1  0  0  0  0
 12 13  1  0  0  0  0
 13 14  2  0  0  0  0
 13 15  1  0  0  0  0
 15 16  2  0  0  0  0
 15 17  1  0  0  0  0
 16 18  1  0  0  0  0
 17 19  2  0  0  0  0
 18 20  2  0  0  0  0
 20 21  1  0  0  0  0
 21 22  1  0  0  0  0
 21 23  2  0  0  0  0
 22 24  1  0  0  0  0
 23 25  1  0  0  0  0
 24 26  1  0  0  0  0
 26 27  2  0  0  0  0
 26 28  1  0  0  0  0
 27 29  1  0  0  0  0
 27 30  1  0  0  0  0
 28 31  2  0  0  0  0
 30 32  2  0  0  0  0
  7  9  1  0  0  0  0
 19 20  1  0  0  0  0
 24 25  2  0  0  0  0
 31 32  1  0  0  0  0
M  END
>  <S/N>
577

>  <Compound ID>
C_594

>  <PubChem CID>
155556297

>  <Isomeric SMILES>
C1=CC=C(C(=C1)C2=NN=C(O2)C3=CC=C(C=C3)C(=O)NNC(=S)NC4=CC=CC=C4Cl)Cl

>  <IC50 (�M)>
0.7

>  <pIC50>
6.15

$$$$
C_595
Actelion Java MolfileCreator 1.0

 34 37  0  0  0  0  0  0  0  0999 V2000
   10.1904   -0.5093   -0.0000 Cl  0  0  0  0  0  0  0  0  0  0  0  0
   10.7782   -1.3183   -0.0000 C   0  0  0  0  0  0  0  0  0  0  0  0
   10.3714   -2.2319   -0.0000 C   0  0  0  0  0  0  0  0  0  0  0  0
   11.7727   -1.2138   -0.0000 C   0  0  0  0  0  0  0  0  0  0  0  0
    9.3769   -2.3364   -0.0000 C   0  0  0  0  0  0  0  0  0  0  0  0
   10.9592   -3.0409   -0.0000 C   0  0  0  0  0  0  0  0  0  0  0  0
   12.3605   -2.0228   -0.0000 C   0  0  0  0  0  0  0  0  0  0  0  0
    8.7078   -1.5933   -0.0000 O   0  0  0  0  0  0  0  0  0  0  0  0
    8.8769   -3.2024   -0.0000 N   0  0  0  0  0  0  0  0  0  0  0  0
   11.9537   -2.9364   -0.0000 C   0  0  0  0  0  0  0  0  0  0  0  0
    7.7942   -2.0000   -0.0000 C   0  0  0  0  0  0  0  0  0  0  0  0
    7.8988   -2.9945   -0.0000 N   0  0  0  0  0  0  0  0  0  0  0  0
    6.9282   -1.5000   -0.0000 C   0  0  0  0  0  0  0  0  0  0  0  0
    6.9282   -0.5000   -0.0000 C   0  0  0  0  0  0  0  0  0  0  0  0
    6.0622   -2.0000   -0.0000 C   0  0  0  0  0  0  0  0  0  0  0  0
    6.0622   -0.0000   -0.0000 C   0  0  0  0  0  0  0  0  0  0  0  0
    5.1962   -1.5000   -0.0000 C   0  0  0  0  0  0  0  0  0  0  0  0
    5.1962   -0.5000   -0.0000 C   0  0  0  0  0  0  0  0  0  0  0  0
    4.3301   -0.0000   -0.0000 C   0  0  0  0  0  0  0  0  0  0  0  0
    4.3301    1.0000   -0.0000 O   0  0  0  0  0  0  0  0  0  0  0  0
    3.4641   -0.5000   -0.0000 N   0  0  0  0  0  0  0  0  0  0  0  0
    2.5981   -0.0000   -0.0000 N   0  0  0  0  0  0  0  0  0  0  0  0
    1.7321   -0.5000   -0.0000 C   0  0  0  0  0  0  0  0  0  0  0  0
    1.7321   -1.5000   -0.0000 S   0  0  0  0  0  0  0  0  0  0  0  0
    0.8660   -0.0000   -0.0000 N   0  0  0  0  0  0  0  0  0  0  0  0
    0.0000   -0.5000   -0.0000 C   0  0  0  0  0  0  0  0  0  0  0  0
   -0.8660    0.0000   -0.0000 C   0  0  0  0  0  0  0  0  0  0  0  0
   -0.0000   -1.5000   -0.0000 C   0  0  0  0  0  0  0  0  0  0  0  0
   -1.7321   -0.5000   -0.0000 C   0  0  0  0  0  0  0  0  0  0  0  0
   -0.8660   -2.0000   -0.0000 C   0  0  0  0  0  0  0  0  0  0  0  0
   -2.5981    0.0000   -0.0000 N   0  0  0  0  0  0  0  0  0  0  0  0
   -1.7321   -1.5000   -0.0000 C   0  0  0  0  0  0  0  0  0  0  0  0
   -2.5981    1.0000   -0.0000 O   0  0  0  0  0  0  0  0  0  0  0  0
   -3.4641   -0.5000   -0.0000 O   0  0  0  0  0  0  0  0  0  0  0  0
  1  2  1  0  0  0  0
  2  3  2  0  0  0  0
  2  4  1  0  0  0  0
  3  5  1  0  0  0  0
  3  6  1  0  0  0  0
  4  7  2  0  0  0  0
  5  8  1  0  0  0  0
  5  9  2  0  0  0  0
  6 10  2  0  0  0  0
  8 11  1  0  0  0  0
  9 12  1  0  0  0  0
 11 13  1  0  0  0  0
 13 14  2  0  0  0  0
 13 15  1  0  0  0  0
 14 16  1  0  0  0  0
 15 17  2  0  0  0  0
 16 18  2  0  0  0  0
 18 19  1  0  0  0  0
 19 20  2  0  0  0  0
 19 21  1  0  0  0  0
 21 22  1  0  0  0  0
 22 23  1  0  0  0  0
 23 24  2  0  0  0  0
 23 25  1  0  0  0  0
 25 26  1  0  0  0  0
 26 27  2  0  0  0  0
 26 28  1  0  0  0  0
 27 29  1  0  0  0  0
 28 30  2  0  0  0  0
 29 31  1  0  0  0  0
 29 32  2  0  0  0  0
 31 33  2  0  0  0  0
 31 34  1  0  0  0  0
  7 10  1  0  0  0  0
 11 12  2  0  0  0  0
 17 18  1  0  0  0  0
 30 32  1  0  0  0  0
M  CHG  2  31   1  34  -1
M  END
>  <S/N>
578

>  <Compound ID>
C_595

>  <PubChem CID>
155556557

>  <Isomeric SMILES>
C1=CC=C(C(=C1)C2=NN=C(O2)C3=CC=C(C=C3)C(=O)NNC(=S)NC4=CC(=CC=C4)[N+](=O)[O-])Cl

>  <IC50 (�M)>
0.4

>  <pIC50>
6.4

$$$$
C_596
Actelion Java MolfileCreator 1.0

 52 61  0  0  0  0  0  0  0  0999 V2000
    7.8857   -2.3960   -0.0000 O   0  0  0  0  0  0  0  0  0  0  0  0
    6.5119   -3.0077   -0.0000 C   0  0  0  0  0  0  0  0  0  0  0  0
    8.8920   -3.5136   -0.0000 C   0  0  0  0  0  0  0  0  0  0  0  0
    6.6691   -4.5033   -0.0000 N   0  0  0  0  0  0  0  0  0  0  0  0
    5.2095   -2.2558   -0.0000 C   0  0  0  0  0  0  0  0  0  0  0  0
    8.1401   -4.8160   -0.0000 N   0  0  0  0  0  0  0  0  0  0  0  0
   10.3876   -3.3564   -0.0000 C   0  0  0  0  0  0  0  0  0  0  0  0
    5.2095   -0.7519   -0.0000 C   0  0  0  0  0  0  0  0  0  0  0  0
    3.9071   -3.0077   -0.0000 C   0  0  0  0  0  0  0  0  0  0  0  0
   11.3939   -4.4740   -0.0000 C   0  0  0  0  0  0  0  0  0  0  0  0
   11.1395   -2.0540   -0.0000 C   0  0  0  0  0  0  0  0  0  0  0  0
    3.8798   -0.0349   -0.0000 C   0  0  0  0  0  0  0  0  0  0  0  0
    2.6213   -2.2147   -0.0000 C   0  0  0  0  0  0  0  0  0  0  0  0
   12.7677   -3.8623   -0.0000 C   0  0  0  0  0  0  0  0  0  0  0  0
   11.2367   -5.9696   -0.0000 C   0  0  0  0  0  0  0  0  0  0  0  0
   12.6105   -2.3667   -0.0000 N   0  0  0  0  0  0  0  0  0  0  0  0
   10.5278   -0.6802   -0.0000 C   0  0  0  0  0  0  0  0  0  0  0  0
    2.6047   -0.7519   -0.0000 C   0  0  0  0  0  0  0  0  0  0  0  0
   13.9843   -4.7463   -0.0000 C   0  0  0  0  0  0  0  0  0  0  0  0
   12.4533   -6.8536   -0.0000 C   0  0  0  0  0  0  0  0  0  0  0  0
    1.3024   -0.0000   -0.0000 C   0  0  0  0  0  0  0  0  0  0  0  0
   13.8272   -6.2419   -0.0000 C   0  0  0  0  0  0  0  0  0  0  0  0
    1.3024    1.5039   -0.0000 C   0  0  0  0  0  0  0  0  0  0  0  0
    0.0000   -0.7519   -0.0000 C   0  0  0  0  0  0  0  0  0  0  0  0
    2.5190    2.3878   -0.0000 C   0  0  0  0  0  0  0  0  0  0  0  0
    0.0857    2.3878   -0.0000 C   0  0  0  0  0  0  0  0  0  0  0  0
   -0.1572   -2.2475   -0.0000 C   0  0  0  0  0  0  0  0  0  0  0  0
   -1.3738   -0.1403   -0.0000 C   0  0  0  0  0  0  0  0  0  0  0  0
    2.0543    3.8180   -0.0000 N   0  0  0  0  0  0  0  0  0  0  0  0
    3.9493    1.9231   -0.0000 C   0  0  0  0  0  0  0  0  0  0  0  0
    0.5504    3.8180   -0.0000 C   0  0  0  0  0  0  0  0  0  0  0  0
   -1.3853    2.0751   -0.0000 C   0  0  0  0  0  0  0  0  0  0  0  0
   -1.6282   -2.5602   -0.0000 N   0  0  0  0  0  0  0  0  0  0  0  0
    0.9604   -3.2538   -0.0000 C   0  0  0  0  0  0  0  0  0  0  0  0
   -2.3801   -1.2578   -0.0000 C   0  0  0  0  0  0  0  0  0  0  0  0
   -1.8386    1.2900   -0.0000 C   0  0  0  0  0  0  0  0  0  0  0  0
    4.3166    0.5218   -0.0000 C   0  0  0  0  0  0  0  0  0  0  0  0
    5.0668    2.9294   -0.0000 C   0  0  0  0  0  0  0  0  0  0  0  0
   -0.4558    4.9356   -0.0000 C   0  0  0  0  0  0  0  0  0  0  0  0
   -2.3915    3.1927   -0.0000 C   0  0  0  0  0  0  0  0  0  0  0  0
    2.3576   -2.8713   -0.0000 C   0  0  0  0  0  0  0  0  0  0  0  0
    0.6477   -4.7248   -0.0000 C   0  0  0  0  0  0  0  0  0  0  0  0
   -3.8511   -0.9452   -0.0000 C   0  0  0  0  0  0  0  0  0  0  0  0
   -3.3095    1.6027   -0.0000 C   0  0  0  0  0  0  0  0  0  0  0  0
    5.6922   -0.0126   -0.0000 C   0  0  0  0  0  0  0  0  0  0  0  0
    6.4971    2.4646   -0.0000 C   0  0  0  0  0  0  0  0  0  0  0  0
   -1.9268    4.6230   -0.0000 C   0  0  0  0  0  0  0  0  0  0  0  0
    3.5082   -3.7954   -0.0000 C   0  0  0  0  0  0  0  0  0  0  0  0
    1.7653   -5.7311   -0.0000 C   0  0  0  0  0  0  0  0  0  0  0  0
   -4.3158    0.4851   -0.0000 C   0  0  0  0  0  0  0  0  0  0  0  0
    6.8098    0.9936   -0.0000 C   0  0  0  0  0  0  0  0  0  0  0  0
    3.1955   -5.2664   -0.0000 C   0  0  0  0  0  0  0  0  0  0  0  0
  1  2  1  0  0  0  0
  1  3  1  0  0  0  0
  2  4  2  0  0  0  0
  2  5  1  0  0  0  0
  3  6  2  0  0  0  0
  3  7  1  0  0  0  0
  5  8  2  0  0  0  0
  5  9  1  0  0  0  0
  7 10  1  0  0  0  0
  7 11  2  0  0  0  0
  8 12  1  0  0  0  0
  9 13  2  0  0  0  0
 10 14  2  0  0  0  0
 10 15  1  0  0  0  0
 11 16  1  0  0  0  0
 11 17  1  0  0  0  0
 12 18  2  0  0  0  0
 14 19  1  0  0  0  0
 15 20  2  0  0  0  0
 18 21  1  0  0  0  0
 19 22  2  0  0  0  0
 21 23  1  0  0  0  0
 21 24  1  0  0  0  0
 23 25  2  0  0  0  0
 23 26  1  0  0  0  0
 24 27  2  0  0  0  0
 24 28  1  0  0  0  0
 25 29  1  0  0  0  0
 25 30  1  0  0  0  0
 26 31  2  0  0  0  0
 26 32  1  0  0  0  0
 27 33  1  0  0  0  0
 27 34  1  0  0  0  0
 28 35  2  0  0  0  0
 28 36  1  0  0  0  0
 30 37  2  0  0  0  0
 30 38  1  0  0  0  0
 31 39  1  0  0  0  0
 32 40  2  0  0  0  0
 34 41  2  0  0  0  0
 34 42  1  0  0  0  0
 35 43  1  0  0  0  0
 36 44  2  0  0  0  0
 37 45  1  0  0  0  0
 38 46  2  0  0  0  0
 39 47  2  0  0  0  0
 41 48  1  0  0  0  0
 42 49  2  0  0  0  0
 43 50  2  0  0  0  0
 45 51  2  0  0  0  0
 48 52  2  0  0  0  0
  4  6  1  0  0  0  0
 13 18  1  0  0  0  0
 14 16  1  0  0  0  0
 20 22  1  0  0  0  0
 29 31  1  0  0  0  0
 33 35  1  0  0  0  0
 40 47  1  0  0  0  0
 44 50  1  0  0  0  0
 46 51  1  0  0  0  0
 49 52  1  0  0  0  0
M  END
>  <S/N>
579

>  <Compound ID>
C_596

>  <PubChem CID>
155556585

>  <Isomeric SMILES>
CC1=C(C2=CC=CC=C2N1)C3=NN=C(O3)C4=CC=C(C=C4)C(C5=C(NC6=CC=CC=C65)C7=CC=CC=C7)C8=C(NC9=CC=CC=C98)C1=CC=CC=C1

>  <IC50 (�M)>
20

>  <pIC50>
4.7

$$$$
C_597
Actelion Java MolfileCreator 1.0

 24 26  0  0  0  0  0  0  0  0999 V2000
    2.5981    2.2500   -0.0000 Cl  0  0  0  0  0  0  0  0  0  0  0  0
    3.8971    1.5000   -0.0000 C   0  0  0  0  0  0  0  0  0  0  0  0
    3.8971   -0.0000   -0.0000 C   0  0  0  0  0  0  0  0  0  0  0  0
    5.1962    2.2500   -0.0000 C   0  0  0  0  0  0  0  0  0  0  0  0
    5.1962   -0.7500   -0.0000 C   0  0  0  0  0  0  0  0  0  0  0  0
    2.5981   -0.7500   -0.0000 C   0  0  0  0  0  0  0  0  0  0  0  0
    6.4952    1.5000   -0.0000 C   0  0  0  0  0  0  0  0  0  0  0  0
    6.4952   -0.0000   -0.0000 C   0  0  0  0  0  0  0  0  0  0  0  0
    1.2990   -0.0000   -0.0000 N   0  0  0  0  0  0  0  0  0  0  0  0
    7.7942    2.2500   -0.0000 Cl  0  0  0  0  0  0  0  0  0  0  0  0
    0.0000   -0.7500   -0.0000 C   0  0  0  0  0  0  0  0  0  0  0  0
   -1.3703   -0.1399   -0.0000 S   0  0  0  0  0  0  0  0  0  0  0  0
   -0.1568   -2.2418   -0.0000 N   0  0  0  0  0  0  0  0  0  0  0  0
   -2.3740   -1.2546   -0.0000 C   0  0  0  0  0  0  0  0  0  0  0  0
   -1.6240   -2.5537   -0.0000 N   0  0  0  0  0  0  0  0  0  0  0  0
   -3.8658   -1.0978   -0.0000 C   0  0  0  0  0  0  0  0  0  0  0  0
   -4.4759    0.2725   -0.0000 C   0  0  0  0  0  0  0  0  0  0  0  0
   -4.7475   -2.3113   -0.0000 C   0  0  0  0  0  0  0  0  0  0  0  0
   -5.9677    0.4293   -0.0000 C   0  0  0  0  0  0  0  0  0  0  0  0
   -6.2393   -2.1546   -0.0000 C   0  0  0  0  0  0  0  0  0  0  0  0
   -6.5778    1.7996   -0.0000 N   0  0  0  0  0  0  0  0  0  0  0  0
   -6.8494   -0.7842   -0.0000 C   0  0  0  0  0  0  0  0  0  0  0  0
   -5.6961    3.0131   -0.0000 O   0  0  0  0  0  0  0  0  0  0  0  0
   -8.0696    1.9564   -0.0000 O   0  0  0  0  0  0  0  0  0  0  0  0
  1  2  1  0  0  0  0
  2  3  2  0  0  0  0
  2  4  1  0  0  0  0
  3  5  1  0  0  0  0
  3  6  1  0  0  0  0
  4  7  2  0  0  0  0
  5  8  2  0  0  0  0
  6  9  2  0  0  0  0
  7 10  1  0  0  0  0
  9 11  1  0  0  0  0
 11 12  1  0  0  0  0
 11 13  2  0  0  0  0
 12 14  1  0  0  0  0
 13 15  1  0  0  0  0
 14 16  1  0  0  0  0
 16 17  2  0  0  0  0
 16 18  1  0  0  0  0
 17 19  1  0  0  0  0
 18 20  2  0  0  0  0
 19 21  1  0  0  0  0
 19 22  2  0  0  0  0
 21 23  2  0  0  0  0
 21 24  1  0  0  0  0
  7  8  1  0  0  0  0
 14 15  2  0  0  0  0
 20 22  1  0  0  0  0
M  CHG  2  21   1  24  -1
M  END
>  <S/N>
580

>  <Compound ID>
C_597

>  <PubChem CID>
155556628

>  <Isomeric SMILES>
C1=CC(=CC(=C1)[N+](=O)[O-])C2=NN=C(S2)/N=C/C3=C(C=C(C=C3)Cl)Cl

>  <IC50 (�M)>
2.3

>  <pIC50>
5.64

$$$$
C_598
Actelion Java MolfileCreator 1.0

 27 30  0  0  1  0  0  0  0  0999 V2000
    2.5981   -2.0000   -0.0000 Cl  0  0  0  0  0  0  0  0  0  0  0  0
    3.4641   -1.5000   -0.0000 C   0  0  0  0  0  0  0  0  0  0  0  0
    3.4641   -0.5000   -0.0000 C   0  0  0  0  0  0  0  0  0  0  0  0
    4.3301   -2.0000   -0.0000 C   0  0  0  0  0  0  0  0  0  0  0  0
    4.3301    0.0000   -0.0000 C   0  0  0  0  0  0  0  0  0  0  0  0
    2.5981   -0.0000   -0.0000 C   0  0  0  0  0  0  0  0  0  0  0  0
    5.1962   -1.5000   -0.0000 C   0  0  0  0  0  0  0  0  0  0  0  0
    5.1962   -0.5000   -0.0000 C   0  0  0  0  0  0  0  0  0  0  0  0
    2.5981    1.0000   -0.0000 C   0  0  0  0  0  0  0  0  0  0  0  0
    1.7321   -0.5000   -0.0000 C   0  0  0  0  0  0  0  0  0  0  0  0
    6.0622   -2.0000   -0.0000 Cl  0  0  0  0  0  0  0  0  0  0  0  0
    3.4071    1.5878   -0.0000 C   0  0  0  0  0  0  0  0  0  0  0  0
    1.7891    1.5878   -0.0000 C   0  0  0  0  0  0  0  0  0  0  0  0
    0.8660   -0.0000   -0.0000 C   0  0  0  0  0  0  0  0  0  0  0  0
    3.0981    2.5388   -0.0000 C   0  0  0  0  0  0  0  0  0  0  0  0
    4.3852    1.3799   -0.0000 C   0  0  0  0  0  0  0  0  0  0  0  0
    2.0981    2.5388   -0.0000 N   0  0  0  0  0  0  0  0  0  0  0  0
    0.8660    1.0000   -0.0000 O   0  0  0  0  0  0  0  0  0  0  0  0
   -0.0000   -0.5000   -0.0000 C   0  0  0  0  0  0  0  0  0  0  0  0
    3.7672    3.2820   -0.0000 C   0  0  0  0  0  0  0  0  0  0  0  0
    5.0544    2.1230   -0.0000 C   0  0  0  0  0  0  0  0  0  0  0  0
   -0.8660    0.0000   -0.0000 C   0  0  0  0  0  0  0  0  0  0  0  0
   -0.0000   -1.5000   -0.0000 C   0  0  0  0  0  0  0  0  0  0  0  0
    4.7454    3.0741   -0.0000 C   0  0  0  0  0  0  0  0  0  0  0  0
   -1.7321   -0.5000   -0.0000 C   0  0  0  0  0  0  0  0  0  0  0  0
   -0.8660   -2.0000   -0.0000 C   0  0  0  0  0  0  0  0  0  0  0  0
   -1.7321   -1.5000   -0.0000 C   0  0  0  0  0  0  0  0  0  0  0  0
  1  2  1  0  0  0  0
  2  3  2  0  0  0  0
  2  4  1  0  0  0  0
  3  5  1  0  0  0  0
  3  6  1  0  0  0  0
  4  7  2  0  0  0  0
  5  8  2  0  0  0  0
  6  9  1  0  0  0  0
  6 10  1  6  0  0  0
  7 11  1  0  0  0  0
  9 12  1  0  0  0  0
  9 13  2  0  0  0  0
 10 14  1  0  0  0  0
 12 15  2  0  0  0  0
 12 16  1  0  0  0  0
 13 17  1  0  0  0  0
 14 18  2  0  0  0  0
 14 19  1  0  0  0  0
 15 20  1  0  0  0  0
 16 21  2  0  0  0  0
 19 22  2  0  0  0  0
 19 23  1  0  0  0  0
 20 24  2  0  0  0  0
 22 25  1  0  0  0  0
 23 26  2  0  0  0  0
 25 27  2  0  0  0  0
  7  8  1  0  0  0  0
 15 17  1  0  0  0  0
 21 24  1  0  0  0  0
 26 27  1  0  0  0  0
M  END
>  <S/N>
581

>  <Compound ID>
C_598

>  <PubChem CID>
155557040

>  <Isomeric SMILES>
C1=CC=C(C=C1)C(=O)C[C@@H](C2=C(C=C(C=C2)Cl)Cl)C3=CNC4=CC=CC=C43

>  <IC50 (�M)>
4.3

>  <pIC50>
5.37

$$$$
C_599
Actelion Java MolfileCreator 1.0

 32 35  0  0  0  0  0  0  0  0999 V2000
    7.7942   -2.0000   -0.0000 Br  0  0  0  0  0  0  0  0  0  0  0  0
    6.9282   -1.5000   -0.0000 C   0  0  0  0  0  0  0  0  0  0  0  0
    6.9282   -0.5000   -0.0000 C   0  0  0  0  0  0  0  0  0  0  0  0
    6.0622   -2.0000   -0.0000 C   0  0  0  0  0  0  0  0  0  0  0  0
    6.0622   -0.0000   -0.0000 C   0  0  0  0  0  0  0  0  0  0  0  0
    5.1962   -1.5000   -0.0000 C   0  0  0  0  0  0  0  0  0  0  0  0
    5.1962   -0.5000   -0.0000 C   0  0  0  0  0  0  0  0  0  0  0  0
    4.3301   -0.0000   -0.0000 N   0  0  0  0  0  0  0  0  0  0  0  0
    3.4641   -0.5000   -0.0000 C   0  0  0  0  0  0  0  0  0  0  0  0
    3.4641   -1.5000   -0.0000 S   0  0  0  0  0  0  0  0  0  0  0  0
    2.5981   -0.0000   -0.0000 N   0  0  0  0  0  0  0  0  0  0  0  0
    1.7321   -0.5000   -0.0000 N   0  0  0  0  0  0  0  0  0  0  0  0
    0.8660   -0.0000   -0.0000 C   0  0  0  0  0  0  0  0  0  0  0  0
    0.8660    1.0000   -0.0000 O   0  0  0  0  0  0  0  0  0  0  0  0
    0.0000   -0.5000   -0.0000 C   0  0  0  0  0  0  0  0  0  0  0  0
   -0.8660    0.0000   -0.0000 C   0  0  0  0  0  0  0  0  0  0  0  0
   -0.0000   -1.5000   -0.0000 C   0  0  0  0  0  0  0  0  0  0  0  0
   -1.7321   -0.5000   -0.0000 C   0  0  0  0  0  0  0  0  0  0  0  0
   -0.8660   -2.0000   -0.0000 C   0  0  0  0  0  0  0  0  0  0  0  0
   -1.7321   -1.5000   -0.0000 C   0  0  0  0  0  0  0  0  0  0  0  0
   -2.5981   -2.0000   -0.0000 C   0  0  0  0  0  0  0  0  0  0  0  0
   -3.5116   -1.5933   -0.0000 O   0  0  0  0  0  0  0  0  0  0  0  0
   -2.7026   -2.9945   -0.0000 N   0  0  0  0  0  0  0  0  0  0  0  0
   -4.1808   -2.3364   -0.0000 C   0  0  0  0  0  0  0  0  0  0  0  0
   -3.6808   -3.2024   -0.0000 N   0  0  0  0  0  0  0  0  0  0  0  0
   -5.1753   -2.2319   -0.0000 C   0  0  0  0  0  0  0  0  0  0  0  0
   -5.5820   -1.3183   -0.0000 C   0  0  0  0  0  0  0  0  0  0  0  0
   -5.7631   -3.0409   -0.0000 C   0  0  0  0  0  0  0  0  0  0  0  0
   -4.9942   -0.5093   -0.0000 Cl  0  0  0  0  0  0  0  0  0  0  0  0
   -6.5765   -1.2138   -0.0000 C   0  0  0  0  0  0  0  0  0  0  0  0
   -6.7576   -2.9364   -0.0000 C   0  0  0  0  0  0  0  0  0  0  0  0
   -7.1643   -2.0228   -0.0000 C   0  0  0  0  0  0  0  0  0  0  0  0
  1  2  1  0  0  0  0
  2  3  2  0  0  0  0
  2  4  1  0  0  0  0
  3  5  1  0  0  0  0
  4  6  2  0  0  0  0
  5  7  2  0  0  0  0
  7  8  1  0  0  0  0
  8  9  1  0  0  0  0
  9 10  2  0  0  0  0
  9 11  1  0  0  0  0
 11 12  1  0  0  0  0
 12 13  1  0  0  0  0
 13 14  2  0  0  0  0
 13 15  1  0  0  0  0
 15 16  2  0  0  0  0
 15 17  1  0  0  0  0
 16 18  1  0  0  0  0
 17 19  2  0  0  0  0
 18 20  2  0  0  0  0
 20 21  1  0  0  0  0
 21 22  1  0  0  0  0
 21 23  2  0  0  0  0
 22 24  1  0  0  0  0
 23 25  1  0  0  0  0
 24 26  1  0  0  0  0
 26 27  2  0  0  0  0
 26 28  1  0  0  0  0
 27 29  1  0  0  0  0
 27 30  1  0  0  0  0
 28 31  2  0  0  0  0
 30 32  2  0  0  0  0
  6  7  1  0  0  0  0
 19 20  1  0  0  0  0
 24 25  2  0  0  0  0
 31 32  1  0  0  0  0
M  END
>  <S/N>
582

>  <Compound ID>
C_599

>  <PubChem CID>
155557333

>  <Isomeric SMILES>
C1=CC=C(C(=C1)C2=NN=C(O2)C3=CC=C(C=C3)C(=O)NNC(=S)NC4=CC=C(C=C4)Br)Cl

>  <IC50 (�M)>
0.4

>  <pIC50>
6.4

$$$$
C_600
Actelion Java MolfileCreator 1.0

 36 40  0  0  0  0  0  0  0  0999 V2000
   -1.1360   -4.1710   -0.0000 Cl  0  0  0  0  0  0  0  0  0  0  0  0
   -0.3929   -3.5019   -0.0000 C   0  0  0  0  0  0  0  0  0  0  0  0
    0.5582   -3.8109   -0.0000 C   0  0  0  0  0  0  0  0  0  0  0  0
   -0.6008   -2.5238   -0.0000 C   0  0  0  0  0  0  0  0  0  0  0  0
    1.3013   -3.1418   -0.0000 C   0  0  0  0  0  0  0  0  0  0  0  0
    0.1424   -1.8546   -0.0000 C   0  0  0  0  0  0  0  0  0  0  0  0
    1.0934   -2.1637   -0.0000 C   0  0  0  0  0  0  0  0  0  0  0  0
    1.8366   -1.4945   -0.0000 C   0  0  0  0  0  0  0  0  0  0  0  0
    2.8147   -1.7024   -0.0000 N   0  0  0  0  0  0  0  0  0  0  0  0
    1.7321   -0.5000   -0.0000 N   0  0  0  0  0  0  0  0  0  0  0  0
    3.3147   -0.8364   -0.0000 N   0  0  0  0  0  0  0  0  0  0  0  0
    2.6456   -0.0933   -0.0000 C   0  0  0  0  0  0  0  0  0  0  0  0
    0.8660   -0.0000   -0.0000 C   0  0  0  0  0  0  0  0  0  0  0  0
    2.8535    0.8849   -0.0000 C   0  0  0  0  0  0  0  0  0  0  0  0
    0.8660    1.0000   -0.0000 C   0  0  0  0  0  0  0  0  0  0  0  0
    3.8046    1.1939   -0.0000 C   0  0  0  0  0  0  0  0  0  0  0  0
    1.6750    1.5878   -0.0000 O   0  0  0  0  0  0  0  0  0  0  0  0
    0.0570    1.5878   -0.0000 N   0  0  0  0  0  0  0  0  0  0  0  0
    4.0125    2.1720   -0.0000 C   0  0  0  0  0  0  0  0  0  0  0  0
    4.5477    0.5248   -0.0000 C   0  0  0  0  0  0  0  0  0  0  0  0
    1.3660    2.5388   -0.0000 C   0  0  0  0  0  0  0  0  0  0  0  0
    0.3660    2.5388   -0.0000 N   0  0  0  0  0  0  0  0  0  0  0  0
    4.9635    2.4811   -0.0000 C   0  0  0  0  0  0  0  0  0  0  0  0
    5.4988    0.8338   -0.0000 C   0  0  0  0  0  0  0  0  0  0  0  0
    1.9538    3.3479   -0.0000 S   0  0  0  0  0  0  0  0  0  0  0  0
   -0.2218    3.3479   -0.0000 C   0  0  0  0  0  0  0  0  0  0  0  0
    5.7067    1.8119   -0.0000 C   0  0  0  0  0  0  0  0  0  0  0  0
   -1.2163    3.2433   -0.0000 N   0  0  0  0  0  0  0  0  0  0  0  0
    6.6577    2.1210   -0.0000 O   0  0  0  0  0  0  0  0  0  0  0  0
   -1.8041    4.0523   -0.0000 C   0  0  0  0  0  0  0  0  0  0  0  0
   -1.6230    2.3298   -0.0000 C   0  0  0  0  0  0  0  0  0  0  0  0
    7.4009    1.4518   -0.0000 C   0  0  0  0  0  0  0  0  0  0  0  0
   -2.7986    3.9478   -0.0000 C   0  0  0  0  0  0  0  0  0  0  0  0
   -2.6175    2.2253   -0.0000 C   0  0  0  0  0  0  0  0  0  0  0  0
   -3.2053    3.0343   -0.0000 N   0  0  0  0  0  0  0  0  0  0  0  0
   -4.1998    2.9297   -0.0000 C   0  0  0  0  0  0  0  0  0  0  0  0
  1  2  1  0  0  0  0
  2  3  2  0  0  0  0
  2  4  1  0  0  0  0
  3  5  1  0  0  0  0
  4  6  2  0  0  0  0
  5  7  2  0  0  0  0
  7  8  1  0  0  0  0
  8  9  2  0  0  0  0
  8 10  1  0  0  0  0
  9 11  1  0  0  0  0
 10 12  1  0  0  0  0
 10 13  1  0  0  0  0
 12 14  1  0  0  0  0
 13 15  1  0  0  0  0
 14 16  1  0  0  0  0
 15 17  1  0  0  0  0
 15 18  2  0  0  0  0
 16 19  2  0  0  0  0
 16 20  1  0  0  0  0
 17 21  1  0  0  0  0
 18 22  1  0  0  0  0
 19 23  1  0  0  0  0
 20 24  2  0  0  0  0
 21 25  2  0  0  0  0
 22 26  1  0  0  0  0
 23 27  2  0  0  0  0
 26 28  1  0  0  0  0
 27 29  1  0  0  0  0
 28 30  1  0  0  0  0
 28 31  1  0  0  0  0
 29 32  1  0  0  0  0
 30 33  1  0  0  0  0
 31 34  1  0  0  0  0
 33 35  1  0  0  0  0
 35 36  1  0  0  0  0
  6  7  1  0  0  0  0
 11 12  2  0  0  0  0
 21 22  1  0  0  0  0
 24 27  1  0  0  0  0
 34 35  1  0  0  0  0
M  END
>  <S/N>
583

>  <Compound ID>
C_600

>  <PubChem CID>
155557845

>  <Isomeric SMILES>
CN1CCN(CC1)CN2C(=S)OC(=N2)CN3C(=NN=C3C4=CC=C(C=C4)Cl)CC5=CC=C(C=C5)OC

>  <IC50 (�M)>
4.3

>  <pIC50>
5.37

$$$$
C_601
Actelion Java MolfileCreator 1.0

 36 40  0  0  0  0  0  0  0  0999 V2000
    6.9872   -7.1837   -0.0000 O   0  0  0  0  0  0  0  0  0  0  0  0
    5.9927   -7.0792   -0.0000 C   0  0  0  0  0  0  0  0  0  0  0  0
    5.5859   -6.1656   -0.0000 C   0  0  0  0  0  0  0  0  0  0  0  0
    5.4049   -7.8882   -0.0000 C   0  0  0  0  0  0  0  0  0  0  0  0
    4.5914   -6.0611   -0.0000 C   0  0  0  0  0  0  0  0  0  0  0  0
    6.1737   -5.3566   -0.0000 C   0  0  0  0  0  0  0  0  0  0  0  0
    4.4104   -7.7837   -0.0000 C   0  0  0  0  0  0  0  0  0  0  0  0
    5.8116   -8.8017   -0.0000 C   0  0  0  0  0  0  0  0  0  0  0  0
    4.0036   -6.8701   -0.0000 O   0  0  0  0  0  0  0  0  0  0  0  0
    4.1847   -5.1476   -0.0000 C   0  0  0  0  0  0  0  0  0  0  0  0
    7.1682   -5.4611   -0.0000 O   0  0  0  0  0  0  0  0  0  0  0  0
    5.7670   -4.4431   -0.0000 C   0  0  0  0  0  0  0  0  0  0  0  0
    3.8226   -8.5927   -0.0000 C   0  0  0  0  0  0  0  0  0  0  0  0
    5.2238   -9.6108   -0.0000 C   0  0  0  0  0  0  0  0  0  0  0  0
    4.7725   -4.3385   -0.0000 C   0  0  0  0  0  0  0  0  0  0  0  0
    4.2293   -9.5062   -0.0000 C   0  0  0  0  0  0  0  0  0  0  0  0
    4.3657   -3.4250   -0.0000 O   0  0  0  0  0  0  0  0  0  0  0  0
    3.6415  -10.3152   -0.0000 O   0  0  0  0  0  0  0  0  0  0  0  0
    4.9535   -2.6160   -0.0000 C   0  0  0  0  0  0  0  0  0  0  0  0
    4.5468   -1.7024   -0.0000 C   0  0  0  0  0  0  0  0  0  0  0  0
    5.0468   -0.8364   -0.0000 N   0  0  0  0  0  0  0  0  0  0  0  0
    3.5686   -1.4945   -0.0000 C   0  0  0  0  0  0  0  0  0  0  0  0
    4.3776   -0.0933   -0.0000 N   0  0  0  0  0  0  0  0  0  0  0  0
    3.4641   -0.5000   -0.0000 N   0  0  0  0  0  0  0  0  0  0  0  0
    2.5981   -0.0000   -0.0000 C   0  0  0  0  0  0  0  0  0  0  0  0
    1.7321   -0.5000   -0.0000 C   0  0  0  0  0  0  0  0  0  0  0  0
    1.7321   -1.5000   -0.0000 O   0  0  0  0  0  0  0  0  0  0  0  0
    0.8660   -0.0000   -0.0000 N   0  0  0  0  0  0  0  0  0  0  0  0
    0.0000   -0.5000   -0.0000 C   0  0  0  0  0  0  0  0  0  0  0  0
   -0.8660    0.0000   -0.0000 C   0  0  0  0  0  0  0  0  0  0  0  0
   -0.0000   -1.5000   -0.0000 C   0  0  0  0  0  0  0  0  0  0  0  0
   -0.8660    1.0000   -0.0000 O   0  0  0  0  0  0  0  0  0  0  0  0
   -1.7321   -0.5000   -0.0000 C   0  0  0  0  0  0  0  0  0  0  0  0
   -0.8660   -2.0000   -0.0000 C   0  0  0  0  0  0  0  0  0  0  0  0
   -1.7321   -1.5000   -0.0000 C   0  0  0  0  0  0  0  0  0  0  0  0
   -2.5981   -2.0000   -0.0000 O   0  0  0  0  0  0  0  0  0  0  0  0
  1  2  2  0  0  0  0
  2  3  1  0  0  0  0
  2  4  1  0  0  0  0
  3  5  2  0  0  0  0
  3  6  1  0  0  0  0
  4  7  2  0  0  0  0
  4  8  1  0  0  0  0
  5  9  1  0  0  0  0
  5 10  1  0  0  0  0
  6 11  1  0  0  0  0
  6 12  2  0  0  0  0
  7 13  1  0  0  0  0
  8 14  2  0  0  0  0
 10 15  2  0  0  0  0
 13 16  2  0  0  0  0
 15 17  1  0  0  0  0
 16 18  1  0  0  0  0
 17 19  1  0  0  0  0
 19 20  1  0  0  0  0
 20 21  1  0  0  0  0
 20 22  2  0  0  0  0
 21 23  2  0  0  0  0
 22 24  1  0  0  0  0
 24 25  1  0  0  0  0
 25 26  1  0  0  0  0
 26 27  2  0  0  0  0
 26 28  1  0  0  0  0
 28 29  1  0  0  0  0
 29 30  2  0  0  0  0
 29 31  1  0  0  0  0
 30 32  1  0  0  0  0
 30 33  1  0  0  0  0
 31 34  2  0  0  0  0
 33 35  2  0  0  0  0
 35 36  1  0  0  0  0
  7  9  1  0  0  0  0
 12 15  1  0  0  0  0
 14 16  1  0  0  0  0
 23 24  1  0  0  0  0
 34 35  1  0  0  0  0
M  END
>  <S/N>
584

>  <Compound ID>
C_601

>  <PubChem CID>
155558468

>  <Isomeric SMILES>
C1=CC2=C(C=C1O)OC3=CC(=CC(=C3C2=O)O)OCC4=CN(N=N4)CC(=O)NC5=C(C=C(C=C5)O)O

>  <IC50 (�M)>
17.61

>  <pIC50>
4.75

$$$$
C_602
Actelion Java MolfileCreator 1.0

 37 41  0  0  0  0  0  0  0  0999 V2000
    6.5665   -0.1399   -0.0000 S   0  0  0  0  0  0  0  0  0  0  0  0
    5.1962   -0.7500   -0.0000 C   0  0  0  0  0  0  0  0  0  0  0  0
    7.5702   -1.2546   -0.0000 C   0  0  0  0  0  0  0  0  0  0  0  0
    3.8971   -0.0000   -0.0000 N   0  0  0  0  0  0  0  0  0  0  0  0
    5.3529   -2.2418   -0.0000 N   0  0  0  0  0  0  0  0  0  0  0  0
    6.8202   -2.5537   -0.0000 C   0  0  0  0  0  0  0  0  0  0  0  0
    9.0619   -1.0978   -0.0000 C   0  0  0  0  0  0  0  0  0  0  0  0
    3.8971    1.5000   -0.0000 N   0  0  0  0  0  0  0  0  0  0  0  0
    4.2382   -3.2455   -0.0000 C   0  0  0  0  0  0  0  0  0  0  0  0
    7.4303   -3.9240   -0.0000 O   0  0  0  0  0  0  0  0  0  0  0  0
    9.6721    0.2725   -0.0000 C   0  0  0  0  0  0  0  0  0  0  0  0
    2.5981    2.2500   -0.0000 C   0  0  0  0  0  0  0  0  0  0  0  0
    2.8116   -2.7820   -0.0000 C   0  0  0  0  0  0  0  0  0  0  0  0
    4.5501   -4.7127   -0.0000 C   0  0  0  0  0  0  0  0  0  0  0  0
   11.1638    0.4293   -0.0000 C   0  0  0  0  0  0  0  0  0  0  0  0
    8.7904    1.4860   -0.0000 C   0  0  0  0  0  0  0  0  0  0  0  0
    1.2990    1.5000   -0.0000 O   0  0  0  0  0  0  0  0  0  0  0  0
    2.5981    3.7500   -0.0000 C   0  0  0  0  0  0  0  0  0  0  0  0
    1.6969   -3.7856   -0.0000 C   0  0  0  0  0  0  0  0  0  0  0  0
    2.4998   -1.3147   -0.0000 C   0  0  0  0  0  0  0  0  0  0  0  0
    3.4354   -5.7164   -0.0000 C   0  0  0  0  0  0  0  0  0  0  0  0
   11.7739    1.7996   -0.0000 C   0  0  0  0  0  0  0  0  0  0  0  0
    9.4005    2.8563   -0.0000 C   0  0  0  0  0  0  0  0  0  0  0  0
    1.2990    4.5000   -0.0000 C   0  0  0  0  0  0  0  0  0  0  0  0
    3.8971    4.5000   -0.0000 C   0  0  0  0  0  0  0  0  0  0  0  0
    2.0088   -5.2529   -0.0000 C   0  0  0  0  0  0  0  0  0  0  0  0
   10.8923    3.0131   -0.0000 C   0  0  0  0  0  0  0  0  0  0  0  0
   -0.0000    3.7500   -0.0000 O   0  0  0  0  0  0  0  0  0  0  0  0
    1.2990    6.0000   -0.0000 O   0  0  0  0  0  0  0  0  0  0  0  0
    3.8971    6.0000   -0.0000 C   0  0  0  0  0  0  0  0  0  0  0  0
    0.8941   -6.2566   -0.0000 C   0  0  0  0  0  0  0  0  0  0  0  0
   11.5024    4.3835   -0.0000 F   0  0  0  0  0  0  0  0  0  0  0  0
    2.5981    6.7500   -0.0000 C   0  0  0  0  0  0  0  0  0  0  0  0
    5.1962    6.7500   -0.0000 C   0  0  0  0  0  0  0  0  0  0  0  0
    2.5981    8.2500   -0.0000 C   0  0  0  0  0  0  0  0  0  0  0  0
    5.1962    8.2500   -0.0000 C   0  0  0  0  0  0  0  0  0  0  0  0
    3.8971    9.0000   -0.0000 C   0  0  0  0  0  0  0  0  0  0  0  0
  1  2  1  0  0  0  0
  1  3  1  0  0  0  0
  2  4  2  0  0  0  0
  2  5  1  0  0  0  0
  3  6  1  0  0  0  0
  3  7  2  0  0  0  0
  4  8  1  0  0  0  0
  5  9  1  0  0  0  0
  6 10  2  0  0  0  0
  7 11  1  0  0  0  0
  8 12  1  0  0  0  0
  9 13  2  0  0  0  0
  9 14  1  0  0  0  0
 11 15  2  0  0  0  0
 11 16  1  0  0  0  0
 12 17  2  0  0  0  0
 12 18  1  0  0  0  0
 13 19  1  0  0  0  0
 13 20  1  0  0  0  0
 14 21  2  0  0  0  0
 15 22  1  0  0  0  0
 16 23  2  0  0  0  0
 18 24  1  0  0  0  0
 18 25  2  0  0  0  0
 19 26  2  0  0  0  0
 22 27  2  0  0  0  0
 24 28  2  0  0  0  0
 24 29  1  0  0  0  0
 25 30  1  0  0  0  0
 26 31  1  0  0  0  0
 27 32  1  0  0  0  0
 29 33  1  0  0  0  0
 30 34  2  0  0  0  0
 33 35  2  0  0  0  0
 34 36  1  0  0  0  0
 35 37  1  0  0  0  0
  5  6  1  0  0  0  0
 21 26  1  0  0  0  0
 23 27  1  0  0  0  0
 30 33  1  0  0  0  0
 36 37  2  0  0  0  0
M  END
>  <S/N>
585

>  <Compound ID>
C_602

>  <PubChem CID>
155558478

>  <Isomeric SMILES>
CC1=CC(=C(C=C1)N\2C(=O)/C(=C/C3=CC=C(C=C3)F)/S/C2=N\NC(=O)C4=CC5=CC=CC=C5OC4=O)C

>  <IC50 (�M)>
0.09

>  <pIC50>
7.05

$$$$
C_603
Actelion Java MolfileCreator 1.0

 34 36  0  0  0  0  0  0  0  0999 V2000
    8.6603   -1.5000   -0.0000 O   0  0  0  0  0  0  0  0  0  0  0  0
    9.5263   -2.0000   -0.0000 C   0  0  0  0  0  0  0  0  0  0  0  0
    9.5263   -3.0000   -0.0000 C   0  0  0  0  0  0  0  0  0  0  0  0
   10.3923   -1.5000   -0.0000 C   0  0  0  0  0  0  0  0  0  0  0  0
   10.3923   -3.5000   -0.0000 C   0  0  0  0  0  0  0  0  0  0  0  0
    8.6603   -3.5000   -0.0000 C   0  0  0  0  0  0  0  0  0  0  0  0
   11.2583   -2.0000   -0.0000 C   0  0  0  0  0  0  0  0  0  0  0  0
   10.3923   -0.5000   -0.0000 C   0  0  0  0  0  0  0  0  0  0  0  0
   11.2583   -3.0000   -0.0000 O   0  0  0  0  0  0  0  0  0  0  0  0
   10.3923   -4.5000   -0.0000 C   0  0  0  0  0  0  0  0  0  0  0  0
    7.7942   -3.0000   -0.0000 O   0  0  0  0  0  0  0  0  0  0  0  0
    8.6603   -4.5000   -0.0000 C   0  0  0  0  0  0  0  0  0  0  0  0
   12.1244   -1.5000   -0.0000 C   0  0  0  0  0  0  0  0  0  0  0  0
   11.2583   -0.0000   -0.0000 C   0  0  0  0  0  0  0  0  0  0  0  0
    9.5263   -0.0000   -0.0000 C   0  0  0  0  0  0  0  0  0  0  0  0
    9.5263   -5.0000   -0.0000 C   0  0  0  0  0  0  0  0  0  0  0  0
   12.1244   -0.5000   -0.0000 C   0  0  0  0  0  0  0  0  0  0  0  0
   11.2583    1.0000   -0.0000 O   0  0  0  0  0  0  0  0  0  0  0  0
    8.6603   -0.5000   -0.0000 C   0  0  0  0  0  0  0  0  0  0  0  0
    9.5263   -6.0000   -0.0000 O   0  0  0  0  0  0  0  0  0  0  0  0
   12.9904    0.0000   -0.0000 O   0  0  0  0  0  0  0  0  0  0  0  0
    7.7942   -0.0000   -0.0000 C   0  0  0  0  0  0  0  0  0  0  0  0
    6.9282   -0.5000   -0.0000 C   0  0  0  0  0  0  0  0  0  0  0  0
    7.7942    1.0000   -0.0000 C   0  0  0  0  0  0  0  0  0  0  0  0
    6.0622   -0.0000   -0.0000 C   0  0  0  0  0  0  0  0  0  0  0  0
    5.1962   -0.5000   -0.0000 C   0  0  0  0  0  0  0  0  0  0  0  0
    4.3301   -0.0000   -0.0000 C   0  0  0  0  0  0  0  0  0  0  0  0
    3.4641   -0.5000   -0.0000 C   0  0  0  0  0  0  0  0  0  0  0  0
    4.3301    1.0000   -0.0000 C   0  0  0  0  0  0  0  0  0  0  0  0
    2.5981   -0.0000   -0.0000 C   0  0  0  0  0  0  0  0  0  0  0  0
    1.7321   -0.5000   -0.0000 C   0  0  0  0  0  0  0  0  0  0  0  0
    0.8660   -0.0000   -0.0000 C   0  0  0  0  0  0  0  0  0  0  0  0
    0.8660    1.0000   -0.0000 C   0  0  0  0  0  0  0  0  0  0  0  0
    0.0000   -0.5000   -0.0000 C   0  0  0  0  0  0  0  0  0  0  0  0
  1  2  2  0  0  0  0
  2  3  1  0  0  0  0
  2  4  1  0  0  0  0
  3  5  2  0  0  0  0
  3  6  1  0  0  0  0
  4  7  2  0  0  0  0
  4  8  1  0  0  0  0
  5  9  1  0  0  0  0
  5 10  1  0  0  0  0
  6 11  1  0  0  0  0
  6 12  2  0  0  0  0
  7 13  1  0  0  0  0
  8 14  2  0  0  0  0
  8 15  1  0  0  0  0
 10 16  2  0  0  0  0
 13 17  2  0  0  0  0
 14 18  1  0  0  0  0
 15 19  1  0  0  0  0
 16 20  1  0  0  0  0
 17 21  1  0  0  0  0
 19 22  2  0  0  0  0
 22 23  1  0  0  0  0
 22 24  1  0  0  0  0
 23 25  1  0  0  0  0
 25 26  1  0  0  0  0
 26 27  2  0  0  0  0
 27 28  1  0  0  0  0
 27 29  1  0  0  0  0
 28 30  1  0  0  0  0
 30 31  1  0  0  0  0
 31 32  2  0  0  0  0
 32 33  1  0  0  0  0
 32 34  1  0  0  0  0
  7  9  1  0  0  0  0
 12 16  1  0  0  0  0
 14 17  1  0  0  0  0
M  END
>  <S/N>
586

>  <Compound ID>
C_603

>  <PubChem CID>
155559088

>  <Isomeric SMILES>
CC(=CCC/C(=C/CC/C(=C/CC1=C(C(=CC2=C1C(=O)C3=C(C=C(C=C3O2)O)O)O)O)/C)/C)C

>  <IC50 (�M)>
76.2

>  <pIC50>
4.12

$$$$
C_604
Actelion Java MolfileCreator 1.0

 41 45  0  0  0  0  0  0  0  0999 V2000
    8.4459  -15.7865   -0.0000 Br  0  0  0  0  0  0  0  0  0  0  0  0
    7.8358  -14.4161   -0.0000 C   0  0  0  0  0  0  0  0  0  0  0  0
    8.7174  -13.2026   -0.0000 C   0  0  0  0  0  0  0  0  0  0  0  0
    6.3440  -14.2593   -0.0000 C   0  0  0  0  0  0  0  0  0  0  0  0
    8.1073  -11.8323   -0.0000 C   0  0  0  0  0  0  0  0  0  0  0  0
    5.7339  -12.8890   -0.0000 C   0  0  0  0  0  0  0  0  0  0  0  0
    8.9890  -10.6188   -0.0000 C   0  0  0  0  0  0  0  0  0  0  0  0
    6.6156  -11.6755   -0.0000 C   0  0  0  0  0  0  0  0  0  0  0  0
   10.4808  -10.7756   -0.0000 O   0  0  0  0  0  0  0  0  0  0  0  0
    8.3789   -9.2484   -0.0000 C   0  0  0  0  0  0  0  0  0  0  0  0
    6.0054  -10.3052   -0.0000 O   0  0  0  0  0  0  0  0  0  0  0  0
    6.8871   -9.0917   -0.0000 C   0  0  0  0  0  0  0  0  0  0  0  0
    9.2606   -8.0349   -0.0000 C   0  0  0  0  0  0  0  0  0  0  0  0
    6.2770   -7.7213   -0.0000 C   0  0  0  0  0  0  0  0  0  0  0  0
   10.7524   -8.1917   -0.0000 O   0  0  0  0  0  0  0  0  0  0  0  0
    8.6505   -6.6646   -0.0000 C   0  0  0  0  0  0  0  0  0  0  0  0
    7.1587   -6.5078   -0.0000 C   0  0  0  0  0  0  0  0  0  0  0  0
   11.6340   -6.9782   -0.0000 C   0  0  0  0  0  0  0  0  0  0  0  0
    6.5486   -5.1375   -0.0000 O   0  0  0  0  0  0  0  0  0  0  0  0
   11.0239   -5.6079   -0.0000 O   0  0  0  0  0  0  0  0  0  0  0  0
   13.1258   -7.1350   -0.0000 C   0  0  0  0  0  0  0  0  0  0  0  0
    7.4303   -3.9240   -0.0000 C   0  0  0  0  0  0  0  0  0  0  0  0
    6.8202   -2.5537   -0.0000 C   0  0  0  0  0  0  0  0  0  0  0  0
    7.5702   -1.2546   -0.0000 N   0  0  0  0  0  0  0  0  0  0  0  0
    5.3529   -2.2418   -0.0000 C   0  0  0  0  0  0  0  0  0  0  0  0
    6.5665   -0.1399   -0.0000 N   0  0  0  0  0  0  0  0  0  0  0  0
    5.1962   -0.7500   -0.0000 N   0  0  0  0  0  0  0  0  0  0  0  0
    3.8971   -0.0000   -0.0000 C   0  0  0  0  0  0  0  0  0  0  0  0
    2.5981   -0.7500   -0.0000 C   0  0  0  0  0  0  0  0  0  0  0  0
    2.5981   -2.2500   -0.0000 O   0  0  0  0  0  0  0  0  0  0  0  0
    1.2990   -0.0000   -0.0000 N   0  0  0  0  0  0  0  0  0  0  0  0
    0.0000   -0.7500   -0.0000 C   0  0  0  0  0  0  0  0  0  0  0  0
   -1.2990    0.0000   -0.0000 C   0  0  0  0  0  0  0  0  0  0  0  0
   -0.0000   -2.2500   -0.0000 C   0  0  0  0  0  0  0  0  0  0  0  0
   -2.5981   -0.7500   -0.0000 C   0  0  0  0  0  0  0  0  0  0  0  0
   -1.2990   -3.0000   -0.0000 C   0  0  0  0  0  0  0  0  0  0  0  0
   -3.8971    0.0000   -0.0000 O   0  0  0  0  0  0  0  0  0  0  0  0
   -2.5981   -2.2500   -0.0000 C   0  0  0  0  0  0  0  0  0  0  0  0
   -5.1962   -0.7500   -0.0000 C   0  0  0  0  0  0  0  0  0  0  0  0
   -3.8971   -3.0000   -0.0000 O   0  0  0  0  0  0  0  0  0  0  0  0
   -3.8971   -4.5000   -0.0000 C   0  0  0  0  0  0  0  0  0  0  0  0
  1  2  1  0  0  0  0
  2  3  2  0  0  0  0
  2  4  1  0  0  0  0
  3  5  1  0  0  0  0
  4  6  2  0  0  0  0
  5  7  1  0  0  0  0
  5  8  2  0  0  0  0
  7  9  2  0  0  0  0
  7 10  1  0  0  0  0
  8 11  1  0  0  0  0
 10 12  2  0  0  0  0
 10 13  1  0  0  0  0
 12 14  1  0  0  0  0
 13 15  1  0  0  0  0
 13 16  2  0  0  0  0
 14 17  2  0  0  0  0
 15 18  1  0  0  0  0
 17 19  1  0  0  0  0
 18 20  2  0  0  0  0
 18 21  1  0  0  0  0
 19 22  1  0  0  0  0
 22 23  1  0  0  0  0
 23 24  1  0  0  0  0
 23 25  2  0  0  0  0
 24 26  2  0  0  0  0
 25 27  1  0  0  0  0
 27 28  1  0  0  0  0
 28 29  1  0  0  0  0
 29 30  2  0  0  0  0
 29 31  1  0  0  0  0
 31 32  1  0  0  0  0
 32 33  2  0  0  0  0
 32 34  1  0  0  0  0
 33 35  1  0  0  0  0
 34 36  2  0  0  0  0
 35 37  1  0  0  0  0
 35 38  2  0  0  0  0
 37 39  1  0  0  0  0
 38 40  1  0  0  0  0
 40 41  1  0  0  0  0
  6  8  1  0  0  0  0
 11 12  1  0  0  0  0
 16 17  1  0  0  0  0
 26 27  1  0  0  0  0
 36 38  1  0  0  0  0
M  END
>  <S/N>
587

>  <Compound ID>
C_604

>  <PubChem CID>
155559089

>  <Isomeric SMILES>
CC(=O)OC1=CC(=CC2=C1C(=O)C3=C(O2)C=CC(=C3)Br)OCC4=CN(N=N4)CC(=O)NC5=CC(=C(C=C5)OC)OC

>  <IC50 (�M)>
32.33

>  <pIC50>
4.49

$$$$
C_605
Actelion Java MolfileCreator 1.0

 21 23  0  0  0  0  0  0  0  0999 V2000
    5.3077    4.8566   -0.0000 Cl  0  0  0  0  0  0  0  0  0  0  0  0
    4.9010    3.9431   -0.0000 C   0  0  0  0  0  0  0  0  0  0  0  0
    3.9064    3.8385   -0.0000 C   0  0  0  0  0  0  0  0  0  0  0  0
    5.4887    3.1341   -0.0000 C   0  0  0  0  0  0  0  0  0  0  0  0
    3.4997    2.9250   -0.0000 C   0  0  0  0  0  0  0  0  0  0  0  0
    5.0820    2.2205   -0.0000 C   0  0  0  0  0  0  0  0  0  0  0  0
    4.0875    2.1160   -0.0000 C   0  0  0  0  0  0  0  0  0  0  0  0
    3.6808    1.2024   -0.0000 C   0  0  0  0  0  0  0  0  0  0  0  0
    2.7026    0.9945   -0.0000 S   0  0  0  0  0  0  0  0  0  0  0  0
    4.1808    0.3364   -0.0000 N   0  0  0  0  0  0  0  0  0  0  0  0
    2.5981   -0.0000   -0.0000 C   0  0  0  0  0  0  0  0  0  0  0  0
    3.5116   -0.4067   -0.0000 N   0  0  0  0  0  0  0  0  0  0  0  0
    1.7321   -0.5000   -0.0000 N   0  0  0  0  0  0  0  0  0  0  0  0
    0.8660   -0.0000   -0.0000 C   0  0  0  0  0  0  0  0  0  0  0  0
    0.0000   -0.5000   -0.0000 C   0  0  0  0  0  0  0  0  0  0  0  0
   -0.8660    0.0000   -0.0000 C   0  0  0  0  0  0  0  0  0  0  0  0
   -0.0000   -1.5000   -0.0000 C   0  0  0  0  0  0  0  0  0  0  0  0
   -1.7321   -0.5000   -0.0000 C   0  0  0  0  0  0  0  0  0  0  0  0
   -0.8660   -2.0000   -0.0000 C   0  0  0  0  0  0  0  0  0  0  0  0
   -1.7321   -1.5000   -0.0000 C   0  0  0  0  0  0  0  0  0  0  0  0
   -2.5981   -2.0000   -0.0000 O   0  0  0  0  0  0  0  0  0  0  0  0
  1  2  1  0  0  0  0
  2  3  2  0  0  0  0
  2  4  1  0  0  0  0
  3  5  1  0  0  0  0
  4  6  2  0  0  0  0
  5  7  2  0  0  0  0
  7  8  1  0  0  0  0
  8  9  1  0  0  0  0
  8 10  2  0  0  0  0
  9 11  1  0  0  0  0
 10 12  1  0  0  0  0
 11 13  1  0  0  0  0
 13 14  2  0  0  0  0
 14 15  1  0  0  0  0
 15 16  2  0  0  0  0
 15 17  1  0  0  0  0
 16 18  1  0  0  0  0
 17 19  2  0  0  0  0
 18 20  2  0  0  0  0
 20 21  1  0  0  0  0
  6  7  1  0  0  0  0
 11 12  2  0  0  0  0
 19 20  1  0  0  0  0
M  END
>  <S/N>
588

>  <Compound ID>
C_605

>  <PubChem CID>
155559778

>  <Isomeric SMILES>
C1=CC(=CC=C1/C=N/C2=NN=C(S2)C3=CC=C(C=C3)Cl)O

>  <IC50 (�M)>
2.3

>  <pIC50>
5.64

$$$$
C_606
Actelion Java MolfileCreator 1.0

 40 42  0  0  0  0  0  0  0  0999 V2000
   18.1866   -2.2500   -0.0000 O   0  0  0  0  0  0  0  0  0  0  0  0
   19.4856   -3.0000   -0.0000 C   0  0  0  0  0  0  0  0  0  0  0  0
   19.4856   -4.5000   -0.0000 C   0  0  0  0  0  0  0  0  0  0  0  0
   20.7846   -2.2500   -0.0000 C   0  0  0  0  0  0  0  0  0  0  0  0
   20.7846   -5.2500   -0.0000 C   0  0  0  0  0  0  0  0  0  0  0  0
   18.1866   -5.2500   -0.0000 C   0  0  0  0  0  0  0  0  0  0  0  0
   22.0837   -3.0000   -0.0000 C   0  0  0  0  0  0  0  0  0  0  0  0
   20.7846   -0.7500   -0.0000 C   0  0  0  0  0  0  0  0  0  0  0  0
   22.0837   -4.5000   -0.0000 O   0  0  0  0  0  0  0  0  0  0  0  0
   20.7846   -6.7500   -0.0000 C   0  0  0  0  0  0  0  0  0  0  0  0
   16.8875   -4.5000   -0.0000 O   0  0  0  0  0  0  0  0  0  0  0  0
   18.1866   -6.7500   -0.0000 C   0  0  0  0  0  0  0  0  0  0  0  0
   23.3827   -2.2500   -0.0000 C   0  0  0  0  0  0  0  0  0  0  0  0
   22.0837    0.0000   -0.0000 C   0  0  0  0  0  0  0  0  0  0  0  0
   19.4856   -0.0000   -0.0000 C   0  0  0  0  0  0  0  0  0  0  0  0
   19.4856   -7.5000   -0.0000 C   0  0  0  0  0  0  0  0  0  0  0  0
   23.3827   -0.7500   -0.0000 C   0  0  0  0  0  0  0  0  0  0  0  0
   22.0837    1.5000   -0.0000 O   0  0  0  0  0  0  0  0  0  0  0  0
   18.1866   -0.7500   -0.0000 C   0  0  0  0  0  0  0  0  0  0  0  0
   19.4856   -9.0000   -0.0000 O   0  0  0  0  0  0  0  0  0  0  0  0
   24.6817    0.0000   -0.0000 O   0  0  0  0  0  0  0  0  0  0  0  0
   16.8875   -0.0000   -0.0000 C   0  0  0  0  0  0  0  0  0  0  0  0
   17.6375    1.2990   -0.0000 O   0  0  0  0  0  0  0  0  0  0  0  0
   15.5885   -0.7500   -0.0000 C   0  0  0  0  0  0  0  0  0  0  0  0
   16.1375    1.2990   -0.0000 C   0  0  0  0  0  0  0  0  0  0  0  0
   14.2894   -0.0000   -0.0000 C   0  0  0  0  0  0  0  0  0  0  0  0
   12.9904   -0.7500   -0.0000 C   0  0  0  0  0  0  0  0  0  0  0  0
   11.6914   -0.0000   -0.0000 C   0  0  0  0  0  0  0  0  0  0  0  0
   10.3923   -0.7500   -0.0000 C   0  0  0  0  0  0  0  0  0  0  0  0
   11.6914    1.5000   -0.0000 C   0  0  0  0  0  0  0  0  0  0  0  0
    9.0933   -0.0000   -0.0000 C   0  0  0  0  0  0  0  0  0  0  0  0
    7.7942   -0.7500   -0.0000 C   0  0  0  0  0  0  0  0  0  0  0  0
    6.4952   -0.0000   -0.0000 C   0  0  0  0  0  0  0  0  0  0  0  0
    5.1962   -0.7500   -0.0000 C   0  0  0  0  0  0  0  0  0  0  0  0
    6.4952    1.5000   -0.0000 C   0  0  0  0  0  0  0  0  0  0  0  0
    3.8971   -0.0000   -0.0000 C   0  0  0  0  0  0  0  0  0  0  0  0
    2.5981   -0.7500   -0.0000 C   0  0  0  0  0  0  0  0  0  0  0  0
    1.2990   -0.0000   -0.0000 C   0  0  0  0  0  0  0  0  0  0  0  0
    1.2990    1.5000   -0.0000 C   0  0  0  0  0  0  0  0  0  0  0  0
    0.0000   -0.7500   -0.0000 C   0  0  0  0  0  0  0  0  0  0  0  0
  1  2  2  0  0  0  0
  2  3  1  0  0  0  0
  2  4  1  0  0  0  0
  3  5  2  0  0  0  0
  3  6  1  0  0  0  0
  4  7  2  0  0  0  0
  4  8  1  0  0  0  0
  5  9  1  0  0  0  0
  5 10  1  0  0  0  0
  6 11  1  0  0  0  0
  6 12  2  0  0  0  0
  7 13  1  0  0  0  0
  8 14  2  0  0  0  0
  8 15  1  0  0  0  0
 10 16  2  0  0  0  0
 13 17  2  0  0  0  0
 14 18  1  0  0  0  0
 15 19  1  0  0  0  0
 16 20  1  0  0  0  0
 17 21  1  0  0  0  0
 19 22  1  0  0  0  0
 22 23  1  6  0  0  0
 22 24  1  0  0  0  0
 22 25  1  0  0  0  0
 24 26  1  0  0  0  0
 26 27  1  0  0  0  0
 27 28  2  0  0  0  0
 28 29  1  0  0  0  0
 28 30  1  0  0  0  0
 29 31  1  0  0  0  0
 31 32  1  0  0  0  0
 32 33  2  0  0  0  0
 33 34  1  0  0  0  0
 33 35  1  0  0  0  0
 34 36  1  0  0  0  0
 36 37  1  0  0  0  0
 37 38  2  0  0  0  0
 38 39  1  0  0  0  0
 38 40  1  0  0  0  0
  7  9  1  0  0  0  0
 12 16  1  0  0  0  0
 14 17  1  0  0  0  0
M  END
>  <S/N>
589

>  <Compound ID>
C_606

>  <PubChem CID>
155559850

>  <Isomeric SMILES>
CC(=CCC/C(=C/CC/C(=C/CCC(C)(CCC1=C(C(=CC2=C1C(=O)C3=C(C=C(C=C3O2)O)O)O)O)O)/C)/C)C

>  <IC50 (�M)>
15.4

>  <pIC50>
4.81

$$$$
C_607
Actelion Java MolfileCreator 1.0

 36 40  0  0  0  0  0  0  0  0999 V2000
    9.9708   -7.4973   -0.0000 Br  0  0  0  0  0  0  0  0  0  0  0  0
    8.9762   -7.3928   -0.0000 C   0  0  0  0  0  0  0  0  0  0  0  0
    8.5695   -6.4792   -0.0000 C   0  0  0  0  0  0  0  0  0  0  0  0
    8.3885   -8.2018   -0.0000 C   0  0  0  0  0  0  0  0  0  0  0  0
    7.5750   -6.3747   -0.0000 C   0  0  0  0  0  0  0  0  0  0  0  0
    7.3939   -8.0973   -0.0000 C   0  0  0  0  0  0  0  0  0  0  0  0
    7.1682   -5.4611   -0.0000 O   0  0  0  0  0  0  0  0  0  0  0  0
    6.9872   -7.1837   -0.0000 C   0  0  0  0  0  0  0  0  0  0  0  0
    6.1737   -5.3566   -0.0000 C   0  0  0  0  0  0  0  0  0  0  0  0
    5.9927   -7.0792   -0.0000 C   0  0  0  0  0  0  0  0  0  0  0  0
    5.5859   -6.1656   -0.0000 C   0  0  0  0  0  0  0  0  0  0  0  0
    5.7670   -4.4431   -0.0000 C   0  0  0  0  0  0  0  0  0  0  0  0
    5.4049   -7.8882   -0.0000 O   0  0  0  0  0  0  0  0  0  0  0  0
    4.5914   -6.0611   -0.0000 C   0  0  0  0  0  0  0  0  0  0  0  0
    4.7725   -4.3385   -0.0000 C   0  0  0  0  0  0  0  0  0  0  0  0
    4.0036   -6.8701   -0.0000 O   0  0  0  0  0  0  0  0  0  0  0  0
    4.1847   -5.1476   -0.0000 C   0  0  0  0  0  0  0  0  0  0  0  0
    4.3657   -3.4250   -0.0000 O   0  0  0  0  0  0  0  0  0  0  0  0
    4.9535   -2.6160   -0.0000 C   0  0  0  0  0  0  0  0  0  0  0  0
    4.5468   -1.7024   -0.0000 C   0  0  0  0  0  0  0  0  0  0  0  0
    5.0468   -0.8364   -0.0000 N   0  0  0  0  0  0  0  0  0  0  0  0
    3.5686   -1.4945   -0.0000 C   0  0  0  0  0  0  0  0  0  0  0  0
    4.3776   -0.0933   -0.0000 N   0  0  0  0  0  0  0  0  0  0  0  0
    3.4641   -0.5000   -0.0000 N   0  0  0  0  0  0  0  0  0  0  0  0
    2.5981   -0.0000   -0.0000 C   0  0  0  0  0  0  0  0  0  0  0  0
    1.7321   -0.5000   -0.0000 C   0  0  0  0  0  0  0  0  0  0  0  0
    1.7321   -1.5000   -0.0000 O   0  0  0  0  0  0  0  0  0  0  0  0
    0.8660   -0.0000   -0.0000 N   0  0  0  0  0  0  0  0  0  0  0  0
    0.0000   -0.5000   -0.0000 C   0  0  0  0  0  0  0  0  0  0  0  0
   -0.8660    0.0000   -0.0000 C   0  0  0  0  0  0  0  0  0  0  0  0
   -0.0000   -1.5000   -0.0000 C   0  0  0  0  0  0  0  0  0  0  0  0
   -0.8660    1.0000   -0.0000 O   0  0  0  0  0  0  0  0  0  0  0  0
   -1.7321   -0.5000   -0.0000 C   0  0  0  0  0  0  0  0  0  0  0  0
   -0.8660   -2.0000   -0.0000 C   0  0  0  0  0  0  0  0  0  0  0  0
   -1.7321   -1.5000   -0.0000 C   0  0  0  0  0  0  0  0  0  0  0  0
   -2.5981   -2.0000   -0.0000 O   0  0  0  0  0  0  0  0  0  0  0  0
  1  2  1  0  0  0  0
  2  3  2  0  0  0  0
  2  4  1  0  0  0  0
  3  5  1  0  0  0  0
  4  6  2  0  0  0  0
  5  7  1  0  0  0  0
  5  8  2  0  0  0  0
  7  9  1  0  0  0  0
  8 10  1  0  0  0  0
  9 11  2  0  0  0  0
  9 12  1  0  0  0  0
 10 13  2  0  0  0  0
 11 14  1  0  0  0  0
 12 15  2  0  0  0  0
 14 16  1  0  0  0  0
 14 17  2  0  0  0  0
 15 18  1  0  0  0  0
 18 19  1  0  0  0  0
 19 20  1  0  0  0  0
 20 21  1  0  0  0  0
 20 22  2  0  0  0  0
 21 23  2  0  0  0  0
 22 24  1  0  0  0  0
 24 25  1  0  0  0  0
 25 26  1  0  0  0  0
 26 27  2  0  0  0  0
 26 28  1  0  0  0  0
 28 29  1  0  0  0  0
 29 30  2  0  0  0  0
 29 31  1  0  0  0  0
 30 32  1  0  0  0  0
 30 33  1  0  0  0  0
 31 34  2  0  0  0  0
 33 35  2  0  0  0  0
 35 36  1  0  0  0  0
  6  8  1  0  0  0  0
 10 11  1  0  0  0  0
 15 17  1  0  0  0  0
 23 24  1  0  0  0  0
 34 35  1  0  0  0  0
M  END
>  <S/N>
590

>  <Compound ID>
C_607

>  <PubChem CID>
155560301

>  <Isomeric SMILES>
C1=CC(=C(C=C1O)O)NC(=O)CN2C=C(N=N2)COC3=CC(=C4C(=C3)OC5=C(C4=O)C=CC(=C5)Br)O

>  <IC50 (�M)>
5.87

>  <pIC50>
5.23

$$$$
C_608
Actelion Java MolfileCreator 1.0

 40 44  0  0  1  0  0  0  0  0999 V2000
    6.9282    2.5000   -0.0000 Br  0  0  0  0  0  0  0  0  0  0  0  0
    6.9282    1.5000   -0.0000 C   0  0  0  0  0  0  0  0  0  0  0  0
    6.0622    1.0000   -0.0000 C   0  0  0  0  0  0  0  0  0  0  0  0
    7.7942    1.0000   -0.0000 C   0  0  0  0  0  0  0  0  0  0  0  0
    6.0622   -0.0000   -0.0000 C   0  0  0  0  0  0  0  0  0  0  0  0
    7.7942   -0.0000   -0.0000 C   0  0  0  0  0  0  0  0  0  0  0  0
    5.1962   -0.5000   -0.0000 N   0  0  0  0  0  0  0  0  0  0  0  0
    6.9282   -0.5000   -0.0000 C   0  0  0  0  0  0  0  0  0  0  0  0
    4.3301   -0.0000   -0.0000 C   0  0  0  0  0  0  0  0  0  0  0  0
    5.1962   -1.5000   -0.0000 C   0  0  0  0  0  0  0  0  0  0  0  0
    3.4641   -0.5000   -0.0000 C   0  0  0  0  0  0  0  0  0  0  0  0
    4.3301    1.0000   -0.0000 C   0  0  0  0  0  0  0  0  0  0  0  0
    6.0622   -2.0000   -0.0000 C   0  0  0  0  0  0  0  0  0  0  0  0
    4.3301   -2.0000   -0.0000 C   0  0  0  0  0  0  0  0  0  0  0  0
    3.4641   -1.5000   -0.0000 C   0  0  0  0  0  0  0  0  0  0  0  0
    2.5981   -0.0000   -0.0000 C   0  0  0  0  0  0  0  0  0  0  0  0
    5.1962    1.5000   -0.0000 C   0  0  0  0  0  0  0  0  0  0  0  0
    3.4641    1.5000   -0.0000 C   0  0  0  0  0  0  0  0  0  0  0  0
    6.0622   -3.0000   -0.0000 C   0  0  0  0  0  0  0  0  0  0  0  0
    6.9282   -1.5000   -0.0000 C   0  0  0  0  0  0  0  0  0  0  0  0
    2.5981   -2.0000   -0.0000 N   0  0  0  0  0  0  0  0  0  0  0  0
    2.5981    1.0000   -0.0000 O   0  0  0  0  0  0  0  0  0  0  0  0
    1.7321   -0.5000   -0.0000 O   0  0  0  0  0  0  0  0  0  0  0  0
    5.1962    2.5000   -0.0000 C   0  0  0  0  0  0  0  0  0  0  0  0
    3.4641    2.5000   -0.0000 C   0  0  0  0  0  0  0  0  0  0  0  0
    6.9282   -3.5000   -0.0000 C   0  0  0  0  0  0  0  0  0  0  0  0
    7.7942   -2.0000   -0.0000 C   0  0  0  0  0  0  0  0  0  0  0  0
    2.5981   -3.0000   -0.0000 C   0  0  0  0  0  0  0  0  0  0  0  0
    0.8660   -0.0000   -0.0000 C   0  0  0  0  0  0  0  0  0  0  0  0
    4.3301    3.0000   -0.0000 C   0  0  0  0  0  0  0  0  0  0  0  0
    7.7942   -3.0000   -0.0000 C   0  0  0  0  0  0  0  0  0  0  0  0
    1.7321   -3.5000   -0.0000 C   0  0  0  0  0  0  0  0  0  0  0  0
    3.4641   -3.5000   -0.0000 C   0  0  0  0  0  0  0  0  0  0  0  0
    0.0000   -0.5000   -0.0000 C   0  0  0  0  0  0  0  0  0  0  0  0
    4.3301    4.0000   -0.0000 Cl  0  0  0  0  0  0  0  0  0  0  0  0
    8.6603   -3.5000   -0.0000 Cl  0  0  0  0  0  0  0  0  0  0  0  0
    1.7321   -4.5000   -0.0000 C   0  0  0  0  0  0  0  0  0  0  0  0
    3.4641   -4.5000   -0.0000 C   0  0  0  0  0  0  0  0  0  0  0  0
    0.8660   -5.0000   -0.0000 Br  0  0  0  0  0  0  0  0  0  0  0  0
    2.5981   -5.0000   -0.0000 C   0  0  0  0  0  0  0  0  0  0  0  0
  1  2  1  0  0  0  0
  2  3  2  0  0  0  0
  2  4  1  0  0  0  0
  3  5  1  0  0  0  0
  4  6  2  0  0  0  0
  5  7  1  0  0  0  0
  5  8  2  0  0  0  0
  7  9  1  0  0  0  0
  7 10  1  0  0  0  0
  9 11  1  0  0  0  0
  9 12  1  1  0  0  0
 10 13  1  6  0  0  0
 10 14  1  0  0  0  0
 11 15  2  0  0  0  0
 11 16  1  0  0  0  0
 12 17  2  0  0  0  0
 12 18  1  0  0  0  0
 13 19  2  0  0  0  0
 13 20  1  0  0  0  0
 15 21  1  0  0  0  0
 16 22  2  0  0  0  0
 16 23  1  0  0  0  0
 17 24  1  0  0  0  0
 18 25  2  0  0  0  0
 19 26  1  0  0  0  0
 20 27  2  0  0  0  0
 21 28  1  0  0  0  0
 23 29  1  0  0  0  0
 24 30  2  0  0  0  0
 26 31  2  0  0  0  0
 28 32  2  0  0  0  0
 28 33  1  0  0  0  0
 29 34  1  0  0  0  0
 30 35  1  0  0  0  0
 31 36  1  0  0  0  0
 32 37  1  0  0  0  0
 33 38  2  0  0  0  0
 37 39  1  0  0  0  0
 37 40  2  0  0  0  0
  6  8  1  0  0  0  0
 14 15  1  0  0  0  0
 25 30  1  0  0  0  0
 27 31  1  0  0  0  0
 38 40  1  0  0  0  0
M  END
>  <S/N>
591

>  <Compound ID>
C_608

>  <PubChem CID>
155560470

>  <Isomeric SMILES>
CCOC(=O)C1=C(C[C@H](N([C@@H]1C2=CC=C(C=C2)Cl)C3=CC(=CC=C3)Br)C4=CC=C(C=C4)Cl)NC5=CC(=CC=C5)Br

>  <IC50 (�M)>
2.3

>  <pIC50>
5.64

$$$$
C_609
Actelion Java MolfileCreator 1.0

 29 32  0  0  0  0  0  0  0  0999 V2000
    1.7321    4.5000   -0.0000 Br  0  0  0  0  0  0  0  0  0  0  0  0
    2.5981    4.0000   -0.0000 C   0  0  0  0  0  0  0  0  0  0  0  0
    2.5981    3.0000   -0.0000 C   0  0  0  0  0  0  0  0  0  0  0  0
    3.4641    4.5000   -0.0000 C   0  0  0  0  0  0  0  0  0  0  0  0
    3.4641    2.5000   -0.0000 C   0  0  0  0  0  0  0  0  0  0  0  0
    4.3301    4.0000   -0.0000 C   0  0  0  0  0  0  0  0  0  0  0  0
    3.4641    1.5000   -0.0000 C   0  0  0  0  0  0  0  0  0  0  0  0
    4.3301    3.0000   -0.0000 C   0  0  0  0  0  0  0  0  0  0  0  0
    2.5981    1.0000   -0.0000 N   0  0  0  0  0  0  0  0  0  0  0  0
    4.3301    1.0000   -0.0000 C   0  0  0  0  0  0  0  0  0  0  0  0
    2.5981   -0.0000   -0.0000 C   0  0  0  0  0  0  0  0  0  0  0  0
    4.3301   -0.0000   -0.0000 C   0  0  0  0  0  0  0  0  0  0  0  0
    1.7321   -0.5000   -0.0000 S   0  0  0  0  0  0  0  0  0  0  0  0
    3.4641   -0.5000   -0.0000 N   0  0  0  0  0  0  0  0  0  0  0  0
    5.1962   -0.5000   -0.0000 C   0  0  0  0  0  0  0  0  0  0  0  0
    0.8660   -0.0000   -0.0000 C   0  0  0  0  0  0  0  0  0  0  0  0
    5.1962   -1.5000   -0.0000 C   0  0  0  0  0  0  0  0  0  0  0  0
    6.0622   -0.0000   -0.0000 C   0  0  0  0  0  0  0  0  0  0  0  0
    0.0000   -0.5000   -0.0000 C   0  0  0  0  0  0  0  0  0  0  0  0
    6.0622   -2.0000   -0.0000 C   0  0  0  0  0  0  0  0  0  0  0  0
    6.9282   -0.5000   -0.0000 C   0  0  0  0  0  0  0  0  0  0  0  0
   -0.8660    0.0000   -0.0000 C   0  0  0  0  0  0  0  0  0  0  0  0
   -0.0000   -1.5000   -0.0000 C   0  0  0  0  0  0  0  0  0  0  0  0
    6.9282   -1.5000   -0.0000 C   0  0  0  0  0  0  0  0  0  0  0  0
   -1.7321   -0.5000   -0.0000 C   0  0  0  0  0  0  0  0  0  0  0  0
   -0.8660   -2.0000   -0.0000 C   0  0  0  0  0  0  0  0  0  0  0  0
    7.7942   -2.0000   -0.0000 C   0  0  0  0  0  0  0  0  0  0  0  0
   -2.5981    0.0000   -0.0000 F   0  0  0  0  0  0  0  0  0  0  0  0
   -1.7321   -1.5000   -0.0000 C   0  0  0  0  0  0  0  0  0  0  0  0
  1  2  1  0  0  0  0
  2  3  2  0  0  0  0
  2  4  1  0  0  0  0
  3  5  1  0  0  0  0
  4  6  2  0  0  0  0
  5  7  1  0  0  0  0
  5  8  2  0  0  0  0
  7  9  2  0  0  0  0
  7 10  1  0  0  0  0
  9 11  1  0  0  0  0
 10 12  2  0  0  0  0
 11 13  1  0  0  0  0
 11 14  2  0  0  0  0
 12 15  1  0  0  0  0
 13 16  1  0  0  0  0
 15 17  2  0  0  0  0
 15 18  1  0  0  0  0
 16 19  1  0  0  0  0
 17 20  1  0  0  0  0
 18 21  2  0  0  0  0
 19 22  2  0  0  0  0
 19 23  1  0  0  0  0
 20 24  2  0  0  0  0
 22 25  1  0  0  0  0
 23 26  2  0  0  0  0
 24 27  1  0  0  0  0
 25 28  1  0  0  0  0
 25 29  2  0  0  0  0
  6  8  1  0  0  0  0
 12 14  1  0  0  0  0
 21 24  1  0  0  0  0
 26 29  1  0  0  0  0
M  END
>  <S/N>
592

>  <Compound ID>
C_609

>  <PubChem CID>
155560581

>  <Isomeric SMILES>
CC1=CC=C(C=C1)C2=CC(=NC(=N2)SCC3=CC(=CC=C3)F)C4=CC(=CC=C4)Br

>  <IC50 (�M)>
19

>  <pIC50>
4.72

$$$$
C_610
Actelion Java MolfileCreator 1.0

 22 24  0  0  0  0  0  0  0  0999 V2000
    1.7321    1.5000   -0.0000 O   0  0  0  0  0  0  0  0  0  0  0  0
    0.8660    1.0000   -0.0000 C   0  0  0  0  0  0  0  0  0  0  0  0
    0.0000    1.5000   -0.0000 C   0  0  0  0  0  0  0  0  0  0  0  0
    0.8660   -0.0000   -0.0000 C   0  0  0  0  0  0  0  0  0  0  0  0
   -0.8660    1.0000   -0.0000 C   0  0  0  0  0  0  0  0  0  0  0  0
    0.0000    2.5000   -0.0000 C   0  0  0  0  0  0  0  0  0  0  0  0
    0.0000   -0.5000   -0.0000 N   0  0  0  0  0  0  0  0  0  0  0  0
   -1.7321    1.5000   -0.0000 C   0  0  0  0  0  0  0  0  0  0  0  0
   -0.8660    3.0000   -0.0000 C   0  0  0  0  0  0  0  0  0  0  0  0
   -0.9135   -0.0933   -0.0000 N   0  0  0  0  0  0  0  0  0  0  0  0
   -0.1045   -1.4945   -0.0000 C   0  0  0  0  0  0  0  0  0  0  0  0
   -1.7321    2.5000   -0.0000 C   0  0  0  0  0  0  0  0  0  0  0  0
   -1.5827   -0.8364   -0.0000 N   0  0  0  0  0  0  0  0  0  0  0  0
   -1.0827   -1.7024   -0.0000 C   0  0  0  0  0  0  0  0  0  0  0  0
    0.5646   -2.2377   -0.0000 C   0  0  0  0  0  0  0  0  0  0  0  0
   -2.5981    3.0000   -0.0000 O   0  0  0  0  0  0  0  0  0  0  0  0
   -1.3917   -2.6535   -0.0000 C   0  0  0  0  0  0  0  0  0  0  0  0
    0.2556   -3.1887   -0.0000 C   0  0  0  0  0  0  0  0  0  0  0  0
   -2.5981    4.0000   -0.0000 C   0  0  0  0  0  0  0  0  0  0  0  0
   -0.7226   -3.3966   -0.0000 C   0  0  0  0  0  0  0  0  0  0  0  0
    0.9247   -3.9319   -0.0000 C   0  0  0  0  0  0  0  0  0  0  0  0
   -1.0316   -4.3477   -0.0000 C   0  0  0  0  0  0  0  0  0  0  0  0
  1  2  2  0  0  0  0
  2  3  1  0  0  0  0
  2  4  1  0  0  0  0
  3  5  2  0  0  0  0
  3  6  1  0  0  0  0
  4  7  1  0  0  0  0
  5  8  1  0  0  0  0
  6  9  2  0  0  0  0
  7 10  1  0  0  0  0
  7 11  1  0  0  0  0
  8 12  2  0  0  0  0
 10 13  2  0  0  0  0
 11 14  2  0  0  0  0
 11 15  1  0  0  0  0
 12 16  1  0  0  0  0
 14 17  1  0  0  0  0
 15 18  2  0  0  0  0
 16 19  1  0  0  0  0
 17 20  2  0  0  0  0
 18 21  1  0  0  0  0
 20 22  1  0  0  0  0
  9 12  1  0  0  0  0
 13 14  1  0  0  0  0
 18 20  1  0  0  0  0
M  END
>  <S/N>
593

>  <Compound ID>
C_610

>  <PubChem CID>
155560899

>  <Isomeric SMILES>
CC1=CC2=C(C=C1C)N(N=N2)CC(=O)C3=CC=C(C=C3)OC

>  <IC50 (�M)>
2.6

>  <pIC50>
5.59

$$$$
C_611
Actelion Java MolfileCreator 1.0

 36 40  0  0  0  0  0  0  0  0999 V2000
    5.6306  -10.5243   -0.0000 Br  0  0  0  0  0  0  0  0  0  0  0  0
    5.2238   -9.6108   -0.0000 C   0  0  0  0  0  0  0  0  0  0  0  0
    5.8116   -8.8017   -0.0000 C   0  0  0  0  0  0  0  0  0  0  0  0
    4.2293   -9.5062   -0.0000 C   0  0  0  0  0  0  0  0  0  0  0  0
    5.4049   -7.8882   -0.0000 C   0  0  0  0  0  0  0  0  0  0  0  0
    3.8226   -8.5927   -0.0000 C   0  0  0  0  0  0  0  0  0  0  0  0
    5.9927   -7.0792   -0.0000 C   0  0  0  0  0  0  0  0  0  0  0  0
    4.4104   -7.7837   -0.0000 C   0  0  0  0  0  0  0  0  0  0  0  0
    6.9872   -7.1837   -0.0000 O   0  0  0  0  0  0  0  0  0  0  0  0
    5.5859   -6.1656   -0.0000 C   0  0  0  0  0  0  0  0  0  0  0  0
    4.0036   -6.8701   -0.0000 O   0  0  0  0  0  0  0  0  0  0  0  0
    4.5914   -6.0611   -0.0000 C   0  0  0  0  0  0  0  0  0  0  0  0
    6.1737   -5.3566   -0.0000 C   0  0  0  0  0  0  0  0  0  0  0  0
    4.1847   -5.1476   -0.0000 C   0  0  0  0  0  0  0  0  0  0  0  0
    7.1682   -5.4611   -0.0000 O   0  0  0  0  0  0  0  0  0  0  0  0
    5.7670   -4.4431   -0.0000 C   0  0  0  0  0  0  0  0  0  0  0  0
    4.7725   -4.3385   -0.0000 C   0  0  0  0  0  0  0  0  0  0  0  0
    4.3657   -3.4250   -0.0000 O   0  0  0  0  0  0  0  0  0  0  0  0
    4.9535   -2.6160   -0.0000 C   0  0  0  0  0  0  0  0  0  0  0  0
    4.5468   -1.7024   -0.0000 C   0  0  0  0  0  0  0  0  0  0  0  0
    5.0468   -0.8364   -0.0000 N   0  0  0  0  0  0  0  0  0  0  0  0
    3.5686   -1.4945   -0.0000 C   0  0  0  0  0  0  0  0  0  0  0  0
    4.3776   -0.0933   -0.0000 N   0  0  0  0  0  0  0  0  0  0  0  0
    3.4641   -0.5000   -0.0000 N   0  0  0  0  0  0  0  0  0  0  0  0
    2.5981   -0.0000   -0.0000 C   0  0  0  0  0  0  0  0  0  0  0  0
    1.7321   -0.5000   -0.0000 C   0  0  0  0  0  0  0  0  0  0  0  0
    1.7321   -1.5000   -0.0000 O   0  0  0  0  0  0  0  0  0  0  0  0
    0.8660   -0.0000   -0.0000 N   0  0  0  0  0  0  0  0  0  0  0  0
    0.0000   -0.5000   -0.0000 C   0  0  0  0  0  0  0  0  0  0  0  0
   -0.8660    0.0000   -0.0000 C   0  0  0  0  0  0  0  0  0  0  0  0
   -0.0000   -1.5000   -0.0000 C   0  0  0  0  0  0  0  0  0  0  0  0
   -1.7321   -0.5000   -0.0000 C   0  0  0  0  0  0  0  0  0  0  0  0
   -0.8660   -2.0000   -0.0000 C   0  0  0  0  0  0  0  0  0  0  0  0
   -2.5981    0.0000   -0.0000 O   0  0  0  0  0  0  0  0  0  0  0  0
   -1.7321   -1.5000   -0.0000 C   0  0  0  0  0  0  0  0  0  0  0  0
   -2.5981   -2.0000   -0.0000 O   0  0  0  0  0  0  0  0  0  0  0  0
  1  2  1  0  0  0  0
  2  3  2  0  0  0  0
  2  4  1  0  0  0  0
  3  5  1  0  0  0  0
  4  6  2  0  0  0  0
  5  7  1  0  0  0  0
  5  8  2  0  0  0  0
  7  9  2  0  0  0  0
  7 10  1  0  0  0  0
  8 11  1  0  0  0  0
 10 12  2  0  0  0  0
 10 13  1  0  0  0  0
 12 14  1  0  0  0  0
 13 15  1  0  0  0  0
 13 16  2  0  0  0  0
 14 17  2  0  0  0  0
 17 18  1  0  0  0  0
 18 19  1  0  0  0  0
 19 20  1  0  0  0  0
 20 21  1  0  0  0  0
 20 22  2  0  0  0  0
 21 23  2  0  0  0  0
 22 24  1  0  0  0  0
 24 25  1  0  0  0  0
 25 26  1  0  0  0  0
 26 27  2  0  0  0  0
 26 28  1  0  0  0  0
 28 29  1  0  0  0  0
 29 30  2  0  0  0  0
 29 31  1  0  0  0  0
 30 32  1  0  0  0  0
 31 33  2  0  0  0  0
 32 34  1  0  0  0  0
 32 35  2  0  0  0  0
 35 36  1  0  0  0  0
  6  8  1  0  0  0  0
 11 12  1  0  0  0  0
 16 17  1  0  0  0  0
 23 24  1  0  0  0  0
 33 35  1  0  0  0  0
M  END
>  <S/N>
594

>  <Compound ID>
C_611

>  <PubChem CID>
155561331

>  <Isomeric SMILES>
C1=CC(=C(C=C1NC(=O)CN2C=C(N=N2)COC3=CC(=C4C(=C3)OC5=C(C4=O)C=C(C=C5)Br)O)O)O

>  <IC50 (�M)>
3.17

>  <pIC50>
5.5

$$$$
C_612
Actelion Java MolfileCreator 1.0

 38 42  0  0  0  0  0  0  0  0999 V2000
    9.9708   -7.4973   -0.0000 Br  0  0  0  0  0  0  0  0  0  0  0  0
    8.9762   -7.3928   -0.0000 C   0  0  0  0  0  0  0  0  0  0  0  0
    8.5695   -6.4792   -0.0000 C   0  0  0  0  0  0  0  0  0  0  0  0
    8.3885   -8.2018   -0.0000 C   0  0  0  0  0  0  0  0  0  0  0  0
    7.5750   -6.3747   -0.0000 C   0  0  0  0  0  0  0  0  0  0  0  0
    7.3939   -8.0973   -0.0000 C   0  0  0  0  0  0  0  0  0  0  0  0
    7.1682   -5.4611   -0.0000 O   0  0  0  0  0  0  0  0  0  0  0  0
    6.9872   -7.1837   -0.0000 C   0  0  0  0  0  0  0  0  0  0  0  0
    6.1737   -5.3566   -0.0000 C   0  0  0  0  0  0  0  0  0  0  0  0
    5.9927   -7.0792   -0.0000 C   0  0  0  0  0  0  0  0  0  0  0  0
    5.5859   -6.1656   -0.0000 C   0  0  0  0  0  0  0  0  0  0  0  0
    5.7670   -4.4431   -0.0000 C   0  0  0  0  0  0  0  0  0  0  0  0
    5.4049   -7.8882   -0.0000 O   0  0  0  0  0  0  0  0  0  0  0  0
    4.5914   -6.0611   -0.0000 C   0  0  0  0  0  0  0  0  0  0  0  0
    4.7725   -4.3385   -0.0000 C   0  0  0  0  0  0  0  0  0  0  0  0
    4.0036   -6.8701   -0.0000 O   0  0  0  0  0  0  0  0  0  0  0  0
    4.1847   -5.1476   -0.0000 C   0  0  0  0  0  0  0  0  0  0  0  0
    4.3657   -3.4250   -0.0000 O   0  0  0  0  0  0  0  0  0  0  0  0
    4.9535   -2.6160   -0.0000 C   0  0  0  0  0  0  0  0  0  0  0  0
    4.5468   -1.7024   -0.0000 C   0  0  0  0  0  0  0  0  0  0  0  0
    5.0468   -0.8364   -0.0000 N   0  0  0  0  0  0  0  0  0  0  0  0
    3.5686   -1.4945   -0.0000 C   0  0  0  0  0  0  0  0  0  0  0  0
    4.3776   -0.0933   -0.0000 N   0  0  0  0  0  0  0  0  0  0  0  0
    3.4641   -0.5000   -0.0000 N   0  0  0  0  0  0  0  0  0  0  0  0
    2.5981   -0.0000   -0.0000 C   0  0  0  0  0  0  0  0  0  0  0  0
    1.7321   -0.5000   -0.0000 C   0  0  0  0  0  0  0  0  0  0  0  0
    1.7321   -1.5000   -0.0000 O   0  0  0  0  0  0  0  0  0  0  0  0
    0.8660   -0.0000   -0.0000 N   0  0  0  0  0  0  0  0  0  0  0  0
    0.0000   -0.5000   -0.0000 C   0  0  0  0  0  0  0  0  0  0  0  0
   -0.8660    0.0000   -0.0000 C   0  0  0  0  0  0  0  0  0  0  0  0
   -0.0000   -1.5000   -0.0000 C   0  0  0  0  0  0  0  0  0  0  0  0
   -1.7321   -0.5000   -0.0000 C   0  0  0  0  0  0  0  0  0  0  0  0
   -0.8660   -2.0000   -0.0000 C   0  0  0  0  0  0  0  0  0  0  0  0
   -2.5981    0.0000   -0.0000 O   0  0  0  0  0  0  0  0  0  0  0  0
   -1.7321   -1.5000   -0.0000 C   0  0  0  0  0  0  0  0  0  0  0  0
   -3.4641   -0.5000   -0.0000 C   0  0  0  0  0  0  0  0  0  0  0  0
   -2.5981   -2.0000   -0.0000 O   0  0  0  0  0  0  0  0  0  0  0  0
   -2.5981   -3.0000   -0.0000 C   0  0  0  0  0  0  0  0  0  0  0  0
  1  2  1  0  0  0  0
  2  3  2  0  0  0  0
  2  4  1  0  0  0  0
  3  5  1  0  0  0  0
  4  6  2  0  0  0  0
  5  7  1  0  0  0  0
  5  8  2  0  0  0  0
  7  9  1  0  0  0  0
  8 10  1  0  0  0  0
  9 11  2  0  0  0  0
  9 12  1  0  0  0  0
 10 13  2  0  0  0  0
 11 14  1  0  0  0  0
 12 15  2  0  0  0  0
 14 16  1  0  0  0  0
 14 17  2  0  0  0  0
 15 18  1  0  0  0  0
 18 19  1  0  0  0  0
 19 20  1  0  0  0  0
 20 21  1  0  0  0  0
 20 22  2  0  0  0  0
 21 23  2  0  0  0  0
 22 24  1  0  0  0  0
 24 25  1  0  0  0  0
 25 26  1  0  0  0  0
 26 27  2  0  0  0  0
 26 28  1  0  0  0  0
 28 29  1  0  0  0  0
 29 30  2  0  0  0  0
 29 31  1  0  0  0  0
 30 32  1  0  0  0  0
 31 33  2  0  0  0  0
 32 34  1  0  0  0  0
 32 35  2  0  0  0  0
 34 36  1  0  0  0  0
 35 37  1  0  0  0  0
 37 38  1  0  0  0  0
  6  8  1  0  0  0  0
 10 11  1  0  0  0  0
 15 17  1  0  0  0  0
 23 24  1  0  0  0  0
 33 35  1  0  0  0  0
M  END
>  <S/N>
595

>  <Compound ID>
C_612

>  <PubChem CID>
155561485

>  <Isomeric SMILES>
COC1=C(C=C(C=C1)NC(=O)CN2C=C(N=N2)COC3=CC(=C4C(=C3)OC5=C(C4=O)C=CC(=C5)Br)O)OC

>  <IC50 (�M)>
11.82

>  <pIC50>
4.93

$$$$
C_613
Actelion Java MolfileCreator 1.0

 24 26  0  0  1  0  0  0  0  0999 V2000
    6.0622   -2.0000   -0.0000 Br  0  0  0  0  0  0  0  0  0  0  0  0
    5.1962   -1.5000   -0.0000 C   0  0  0  0  0  0  0  0  0  0  0  0
    5.1962   -0.5000   -0.0000 C   0  0  0  0  0  0  0  0  0  0  0  0
    4.3301   -2.0000   -0.0000 C   0  0  0  0  0  0  0  0  0  0  0  0
    4.3301    0.0000   -0.0000 C   0  0  0  0  0  0  0  0  0  0  0  0
    3.4641   -1.5000   -0.0000 C   0  0  0  0  0  0  0  0  0  0  0  0
    4.3301    1.0000   -0.0000 O   0  0  0  0  0  0  0  0  0  0  0  0
    3.4641   -0.5000   -0.0000 C   0  0  0  0  0  0  0  0  0  0  0  0
    3.4641    1.5000   -0.0000 C   0  0  0  0  0  0  0  0  0  0  0  0
    2.5981   -0.0000   -0.0000 O   0  0  0  0  0  0  0  0  0  0  0  0
    1.7321   -0.5000   -0.0000 C   0  0  0  0  0  0  0  0  0  0  0  0
    0.8660   -0.0000   -0.0000 C   0  0  0  0  0  0  0  0  0  0  0  0
    1.7321   -1.5000   -0.0000 C   0  0  0  0  0  0  0  0  0  0  0  0
    0.0000   -0.5000   -0.0000 N   0  0  0  0  0  0  0  0  0  0  0  0
   -0.9135   -0.0933   -0.0000 N   0  0  0  0  0  0  0  0  0  0  0  0
   -0.1045   -1.4945   -0.0000 C   0  0  0  0  0  0  0  0  0  0  0  0
   -1.5827   -0.8364   -0.0000 N   0  0  0  0  0  0  0  0  0  0  0  0
   -1.0827   -1.7024   -0.0000 C   0  0  0  0  0  0  0  0  0  0  0  0
   -1.4894   -2.6160   -0.0000 C   0  0  0  0  0  0  0  0  0  0  0  0
   -2.4839   -2.7205   -0.0000 C   0  0  0  0  0  0  0  0  0  0  0  0
   -0.9016   -3.4250   -0.0000 C   0  0  0  0  0  0  0  0  0  0  0  0
   -2.8907   -3.6341   -0.0000 C   0  0  0  0  0  0  0  0  0  0  0  0
   -1.3084   -4.3385   -0.0000 C   0  0  0  0  0  0  0  0  0  0  0  0
   -2.3029   -4.4431   -0.0000 C   0  0  0  0  0  0  0  0  0  0  0  0
  1  2  1  0  0  0  0
  2  3  2  0  0  0  0
  2  4  1  0  0  0  0
  3  5  1  0  0  0  0
  4  6  2  0  0  0  0
  5  7  1  0  0  0  0
  5  8  2  0  0  0  0
  7  9  1  0  0  0  0
  8 10  1  0  0  0  0
 10 11  1  0  0  0  0
 11 12  1  0  0  0  0
 11 13  1  6  0  0  0
 12 14  1  0  0  0  0
 14 15  1  0  0  0  0
 14 16  1  0  0  0  0
 15 17  2  0  0  0  0
 16 18  2  0  0  0  0
 18 19  1  0  0  0  0
 19 20  2  0  0  0  0
 19 21  1  0  0  0  0
 20 22  1  0  0  0  0
 21 23  2  0  0  0  0
 22 24  2  0  0  0  0
  6  8  1  0  0  0  0
 17 18  1  0  0  0  0
 23 24  1  0  0  0  0
M  END
>  <S/N>
596

>  <Compound ID>
C_613

>  <PubChem CID>
155561638

>  <Isomeric SMILES>
C[C@H](CN1C=C(N=N1)C2=CC=CC=C2)OC3=C(C=C(C=C3)Br)OC

>  <IC50 (�M)>
14

>  <pIC50>
4.85

$$$$
C_614
Actelion Java MolfileCreator 1.0

 44 51  0  0  0  0  0  0  0  0999 V2000
    5.2437   -1.5933   -0.0000 O   0  0  0  0  0  0  0  0  0  0  0  0
    4.3301   -2.0000   -0.0000 C   0  0  0  0  0  0  0  0  0  0  0  0
    5.9128   -2.3364   -0.0000 C   0  0  0  0  0  0  0  0  0  0  0  0
    4.4347   -2.9945   -0.0000 N   0  0  0  0  0  0  0  0  0  0  0  0
    3.4641   -1.5000   -0.0000 C   0  0  0  0  0  0  0  0  0  0  0  0
    5.4128   -3.2024   -0.0000 N   0  0  0  0  0  0  0  0  0  0  0  0
    6.9073   -2.2319   -0.0000 C   0  0  0  0  0  0  0  0  0  0  0  0
    3.4641   -0.5000   -0.0000 C   0  0  0  0  0  0  0  0  0  0  0  0
    2.5981   -2.0000   -0.0000 C   0  0  0  0  0  0  0  0  0  0  0  0
    7.5765   -2.9750   -0.0000 C   0  0  0  0  0  0  0  0  0  0  0  0
    7.4073   -1.3659   -0.0000 C   0  0  0  0  0  0  0  0  0  0  0  0
    2.5981    0.0000   -0.0000 C   0  0  0  0  0  0  0  0  0  0  0  0
    1.7321   -1.5000   -0.0000 C   0  0  0  0  0  0  0  0  0  0  0  0
    8.4900   -2.5683   -0.0000 C   0  0  0  0  0  0  0  0  0  0  0  0
    7.4719   -3.9695   -0.0000 C   0  0  0  0  0  0  0  0  0  0  0  0
    8.3855   -1.5738   -0.0000 N   0  0  0  0  0  0  0  0  0  0  0  0
    1.7321   -0.5000   -0.0000 C   0  0  0  0  0  0  0  0  0  0  0  0
    9.2990   -3.1561   -0.0000 C   0  0  0  0  0  0  0  0  0  0  0  0
    8.2809   -4.5573   -0.0000 C   0  0  0  0  0  0  0  0  0  0  0  0
    9.1286   -0.9046   -0.0000 C   0  0  0  0  0  0  0  0  0  0  0  0
    0.8660   -0.0000   -0.0000 C   0  0  0  0  0  0  0  0  0  0  0  0
    9.1945   -4.1506   -0.0000 C   0  0  0  0  0  0  0  0  0  0  0  0
    0.8660    1.0000   -0.0000 C   0  0  0  0  0  0  0  0  0  0  0  0
    0.0000   -0.5000   -0.0000 C   0  0  0  0  0  0  0  0  0  0  0  0
    0.0570    1.5878   -0.0000 C   0  0  0  0  0  0  0  0  0  0  0  0
    1.6750    1.5878   -0.0000 C   0  0  0  0  0  0  0  0  0  0  0  0
   -0.9135   -0.0933   -0.0000 C   0  0  0  0  0  0  0  0  0  0  0  0
   -0.1045   -1.4945   -0.0000 C   0  0  0  0  0  0  0  0  0  0  0  0
    0.3660    2.5388   -0.0000 C   0  0  0  0  0  0  0  0  0  0  0  0
   -0.9211    1.3799   -0.0000 C   0  0  0  0  0  0  0  0  0  0  0  0
    1.3660    2.5388   -0.0000 N   0  0  0  0  0  0  0  0  0  0  0  0
    2.6261    1.2788   -0.0000 C   0  0  0  0  0  0  0  0  0  0  0  0
   -1.5827   -0.8364   -0.0000 C   0  0  0  0  0  0  0  0  0  0  0  0
   -1.2226    0.8578   -0.0000 C   0  0  0  0  0  0  0  0  0  0  0  0
   -1.0827   -1.7024   -0.0000 N   0  0  0  0  0  0  0  0  0  0  0  0
    0.6386   -2.1637   -0.0000 C   0  0  0  0  0  0  0  0  0  0  0  0
   -0.3031    3.2820   -0.0000 C   0  0  0  0  0  0  0  0  0  0  0  0
   -1.5903    2.1230   -0.0000 C   0  0  0  0  0  0  0  0  0  0  0  0
    1.9538    3.3479   -0.0000 C   0  0  0  0  0  0  0  0  0  0  0  0
   -2.5608   -0.6285   -0.0000 C   0  0  0  0  0  0  0  0  0  0  0  0
   -2.2007    1.0657   -0.0000 C   0  0  0  0  0  0  0  0  0  0  0  0
   -1.4894   -2.6160   -0.0000 C   0  0  0  0  0  0  0  0  0  0  0  0
   -1.2813    3.0741   -0.0000 C   0  0  0  0  0  0  0  0  0  0  0  0
   -2.8698    0.3226   -0.0000 C   0  0  0  0  0  0  0  0  0  0  0  0
  1  2  1  0  0  0  0
  1  3  1  0  0  0  0
  2  4  2  0  0  0  0
  2  5  1  0  0  0  0
  3  6  2  0  0  0  0
  3  7  1  0  0  0  0
  5  8  2  0  0  0  0
  5  9  1  0  0  0  0
  7 10  1  0  0  0  0
  7 11  2  0  0  0  0
  8 12  1  0  0  0  0
  9 13  2  0  0  0  0
 10 14  2  0  0  0  0
 10 15  1  0  0  0  0
 11 16  1  0  0  0  0
 12 17  2  0  0  0  0
 14 18  1  0  0  0  0
 15 19  2  0  0  0  0
 16 20  1  0  0  0  0
 17 21  1  0  0  0  0
 18 22  2  0  0  0  0
 21 23  1  0  0  0  0
 21 24  1  0  0  0  0
 23 25  1  0  0  0  0
 23 26  2  0  0  0  0
 24 27  1  0  0  0  0
 24 28  2  0  0  0  0
 25 29  2  0  0  0  0
 25 30  1  0  0  0  0
 26 31  1  0  0  0  0
 26 32  1  0  0  0  0
 27 33  2  0  0  0  0
 27 34  1  0  0  0  0
 28 35  1  0  0  0  0
 28 36  1  0  0  0  0
 29 37  1  0  0  0  0
 30 38  2  0  0  0  0
 31 39  1  0  0  0  0
 33 40  1  0  0  0  0
 34 41  2  0  0  0  0
 35 42  1  0  0  0  0
 37 43  2  0  0  0  0
 40 44  2  0  0  0  0
  4  6  1  0  0  0  0
 13 17  1  0  0  0  0
 14 16  1  0  0  0  0
 19 22  1  0  0  0  0
 29 31  1  0  0  0  0
 33 35  1  0  0  0  0
 38 43  1  0  0  0  0
 41 44  1  0  0  0  0
M  END
>  <S/N>
597

>  <Compound ID>
C_614

>  <PubChem CID>
155562117

>  <Isomeric SMILES>
CC1=C(C2=CC=CC=C2N1C)C(C3=CC=C(C=C3)C4=NN=C(O4)C5=CN(C6=CC=CC=C65)C)C7=C(N(C8=CC=CC=C87)C)C

>  <IC50 (�M)>
20

>  <pIC50>
4.7

$$$$
C_615
Actelion Java MolfileCreator 1.0

 32 36  0  0  0  0  0  0  0  0999 V2000
    4.0941    1.8486   -0.0000 F   0  0  0  0  0  0  0  0  0  0  0  0
    3.9252    0.0000   -0.0000 C   0  0  0  0  0  0  0  0  0  0  0  0
    2.6168   -0.7554   -0.0000 C   0  0  0  0  0  0  0  0  0  0  0  0
    5.2336   -0.7554   -0.0000 C   0  0  0  0  0  0  0  0  0  0  0  0
    2.6168   -2.2662   -0.0000 C   0  0  0  0  0  0  0  0  0  0  0  0
    1.3084   -0.0000   -0.0000 C   0  0  0  0  0  0  0  0  0  0  0  0
    5.2336   -2.2662   -0.0000 C   0  0  0  0  0  0  0  0  0  0  0  0
    3.9252   -3.0216   -0.0000 C   0  0  0  0  0  0  0  0  0  0  0  0
    1.3084    1.5108   -0.0000 C   0  0  0  0  0  0  0  0  0  0  0  0
    0.0000   -0.7554   -0.0000 C   0  0  0  0  0  0  0  0  0  0  0  0
    2.6168    2.2662   -0.0000 C   0  0  0  0  0  0  0  0  0  0  0  0
    0.0000    2.2662   -0.0000 C   0  0  0  0  0  0  0  0  0  0  0  0
    0.0000   -2.2662   -0.0000 C   0  0  0  0  0  0  0  0  0  0  0  0
   -1.3084   -0.0000   -0.0000 C   0  0  0  0  0  0  0  0  0  0  0  0
    3.6175    1.5389   -0.0000 O   0  0  0  0  0  0  0  0  0  0  0  0
    2.6168    3.7770   -0.0000 O   0  0  0  0  0  0  0  0  0  0  0  0
   -1.1450    1.8513   -0.0000 N   0  0  0  0  0  0  0  0  0  0  0  0
   -0.0000    3.7770   -0.0000 C   0  0  0  0  0  0  0  0  0  0  0  0
    1.3084   -3.0216   -0.0000 O   0  0  0  0  0  0  0  0  0  0  0  0
   -1.3084   -3.0216   -0.0000 O   0  0  0  0  0  0  0  0  0  0  0  0
   -1.3901    1.3406   -0.0000 N   0  0  0  0  0  0  0  0  0  0  0  0
   -2.6168   -0.7554   -0.0000 C   0  0  0  0  0  0  0  0  0  0  0  0
    1.3084    4.5324   -0.0000 C   0  0  0  0  0  0  0  0  0  0  0  0
   -1.3084    4.5324   -0.0000 C   0  0  0  0  0  0  0  0  0  0  0  0
   -2.6168   -2.2662   -0.0000 C   0  0  0  0  0  0  0  0  0  0  0  0
   -3.9252   -0.0000   -0.0000 C   0  0  0  0  0  0  0  0  0  0  0  0
    1.3084    6.0432   -0.0000 C   0  0  0  0  0  0  0  0  0  0  0  0
   -1.3084    6.0432   -0.0000 C   0  0  0  0  0  0  0  0  0  0  0  0
   -3.9252   -3.0216   -0.0000 C   0  0  0  0  0  0  0  0  0  0  0  0
   -5.2336   -0.7554   -0.0000 C   0  0  0  0  0  0  0  0  0  0  0  0
    0.0000    6.7986   -0.0000 C   0  0  0  0  0  0  0  0  0  0  0  0
   -5.2336   -2.2662   -0.0000 C   0  0  0  0  0  0  0  0  0  0  0  0
  1  2  1  0  0  0  0
  2  3  2  0  0  0  0
  2  4  1  0  0  0  0
  3  5  1  0  0  0  0
  3  6  1  0  0  0  0
  4  7  2  0  0  0  0
  5  8  2  0  0  0  0
  6  9  1  0  0  0  0
  6 10  1  0  0  0  0
  9 11  1  0  0  0  0
  9 12  2  0  0  0  0
 10 13  1  0  0  0  0
 10 14  2  0  0  0  0
 11 15  2  0  0  0  0
 11 16  1  0  0  0  0
 12 17  1  0  0  0  0
 12 18  1  0  0  0  0
 13 19  2  0  0  0  0
 13 20  1  0  0  0  0
 14 21  1  0  0  0  0
 14 22  1  0  0  0  0
 16 23  1  0  0  0  0
 18 24  2  0  0  0  0
 20 25  1  0  0  0  0
 22 26  2  0  0  0  0
 23 27  2  0  0  0  0
 24 28  1  0  0  0  0
 25 29  2  0  0  0  0
 26 30  1  0  0  0  0
 27 31  1  0  0  0  0
 29 32  1  0  0  0  0
  7  8  1  0  0  0  0
 18 23  1  0  0  0  0
 22 25  1  0  0  0  0
 28 31  2  0  0  0  0
 30 32  2  0  0  0  0
M  END
>  <S/N>
598

>  <Compound ID>
C_615

>  <PubChem CID>
155562458

>  <Isomeric SMILES>
C1=CC=C2C(=C1)C(=C(C(=O)O2)C(C3=CC=CC=C3F)C4=C(C5=CC=CC=C5OC4=O)N)N

>  <IC50 (�M)>
20

>  <pIC50>
4.7

$$$$
C_616
Actelion Java MolfileCreator 1.0

 42 48  0  0  0  0  0  0  0  0999 V2000
    0.7134   -1.7237   -0.0000 Cl  0  0  0  0  0  0  0  0  0  0  0  0
    1.2134   -2.5897   -0.0000 C   0  0  0  0  0  0  0  0  0  0  0  0
    2.2134   -2.5897   -0.0000 C   0  0  0  0  0  0  0  0  0  0  0  0
    0.7134   -3.4557   -0.0000 C   0  0  0  0  0  0  0  0  0  0  0  0
    2.7134   -3.4557   -0.0000 C   0  0  0  0  0  0  0  0  0  0  0  0
    1.2134   -4.3218   -0.0000 C   0  0  0  0  0  0  0  0  0  0  0  0
    3.6915   -3.6637   -0.0000 C   0  0  0  0  0  0  0  0  0  0  0  0
    2.2134   -4.3218   -0.0000 C   0  0  0  0  0  0  0  0  0  0  0  0
    4.4347   -2.9945   -0.0000 C   0  0  0  0  0  0  0  0  0  0  0  0
    3.7960   -4.6582   -0.0000 C   0  0  0  0  0  0  0  0  0  0  0  0
    2.8825   -5.0649   -0.0000 N   0  0  0  0  0  0  0  0  0  0  0  0
    5.4128   -3.2024   -0.0000 N   0  0  0  0  0  0  0  0  0  0  0  0
    4.3301   -2.0000   -0.0000 N   0  0  0  0  0  0  0  0  0  0  0  0
    4.6621   -5.1582   -0.0000 C   0  0  0  0  0  0  0  0  0  0  0  0
    5.9128   -2.3364   -0.0000 C   0  0  0  0  0  0  0  0  0  0  0  0
    3.4641   -1.5000   -0.0000 C   0  0  0  0  0  0  0  0  0  0  0  0
    5.2437   -1.5933   -0.0000 C   0  0  0  0  0  0  0  0  0  0  0  0
    5.5281   -4.6582   -0.0000 C   0  0  0  0  0  0  0  0  0  0  0  0
    4.6621   -6.1582   -0.0000 C   0  0  0  0  0  0  0  0  0  0  0  0
    6.9073   -2.2319   -0.0000 C   0  0  0  0  0  0  0  0  0  0  0  0
    3.4641   -0.5000   -0.0000 C   0  0  0  0  0  0  0  0  0  0  0  0
    2.5981   -2.0000   -0.0000 C   0  0  0  0  0  0  0  0  0  0  0  0
    5.4516   -0.6151   -0.0000 C   0  0  0  0  0  0  0  0  0  0  0  0
    6.3941   -5.1582   -0.0000 C   0  0  0  0  0  0  0  0  0  0  0  0
    5.5281   -6.6582   -0.0000 C   0  0  0  0  0  0  0  0  0  0  0  0
    7.4951   -3.0409   -0.0000 C   0  0  0  0  0  0  0  0  0  0  0  0
    7.3141   -1.3183   -0.0000 C   0  0  0  0  0  0  0  0  0  0  0  0
    2.5981    0.0000   -0.0000 C   0  0  0  0  0  0  0  0  0  0  0  0
    1.7321   -1.5000   -0.0000 C   0  0  0  0  0  0  0  0  0  0  0  0
    6.4026   -0.3061   -0.0000 C   0  0  0  0  0  0  0  0  0  0  0  0
    4.7084    0.0540   -0.0000 C   0  0  0  0  0  0  0  0  0  0  0  0
    6.3941   -6.1582   -0.0000 C   0  0  0  0  0  0  0  0  0  0  0  0
    8.4896   -2.9364   -0.0000 C   0  0  0  0  0  0  0  0  0  0  0  0
    8.3086   -1.2138   -0.0000 C   0  0  0  0  0  0  0  0  0  0  0  0
    1.7321   -0.5000   -0.0000 C   0  0  0  0  0  0  0  0  0  0  0  0
    6.6106    0.6720   -0.0000 C   0  0  0  0  0  0  0  0  0  0  0  0
    4.9164    1.0322   -0.0000 C   0  0  0  0  0  0  0  0  0  0  0  0
    7.2601   -6.6582   -0.0000 Cl  0  0  0  0  0  0  0  0  0  0  0  0
    8.8964   -2.0228   -0.0000 C   0  0  0  0  0  0  0  0  0  0  0  0
    0.8660   -0.0000   -0.0000 O   0  0  0  0  0  0  0  0  0  0  0  0
    5.8674    1.3412   -0.0000 C   0  0  0  0  0  0  0  0  0  0  0  0
    0.0000   -0.5000   -0.0000 C   0  0  0  0  0  0  0  0  0  0  0  0
  1  2  1  0  0  0  0
  2  3  2  0  0  0  0
  2  4  1  0  0  0  0
  3  5  1  0  0  0  0
  4  6  2  0  0  0  0
  5  7  1  0  0  0  0
  5  8  2  0  0  0  0
  7  9  1  0  0  0  0
  7 10  2  0  0  0  0
  8 11  1  0  0  0  0
  9 12  2  0  0  0  0
  9 13  1  0  0  0  0
 10 14  1  0  0  0  0
 12 15  1  0  0  0  0
 13 16  1  0  0  0  0
 13 17  1  0  0  0  0
 14 18  2  0  0  0  0
 14 19  1  0  0  0  0
 15 20  1  0  0  0  0
 16 21  2  0  0  0  0
 16 22  1  0  0  0  0
 17 23  1  0  0  0  0
 18 24  1  0  0  0  0
 19 25  2  0  0  0  0
 20 26  2  0  0  0  0
 20 27  1  0  0  0  0
 21 28  1  0  0  0  0
 22 29  2  0  0  0  0
 23 30  2  0  0  0  0
 23 31  1  0  0  0  0
 24 32  2  0  0  0  0
 26 33  1  0  0  0  0
 27 34  2  0  0  0  0
 28 35  2  0  0  0  0
 30 36  1  0  0  0  0
 31 37  2  0  0  0  0
 32 38  1  0  0  0  0
 33 39  2  0  0  0  0
 35 40  1  0  0  0  0
 36 41  2  0  0  0  0
 40 42  1  0  0  0  0
  6  8  1  0  0  0  0
 10 11  1  0  0  0  0
 15 17  2  0  0  0  0
 25 32  1  0  0  0  0
 29 35  1  0  0  0  0
 34 39  1  0  0  0  0
 37 41  1  0  0  0  0
M  END
>  <S/N>
599

>  <Compound ID>
C_616

>  <PubChem CID>
155562954

>  <Isomeric SMILES>
COC1=CC=C(C=C1)N2C(=C(N=C2C3=C(NC4=C3C=C(C=C4)Cl)C5=CC=C(C=C5)Cl)C6=CC=CC=C6)C7=CC=CC=C7

>  <IC50 (�M)>
8.3

>  <pIC50>
5.08

$$$$
C_617
Actelion Java MolfileCreator 1.0

 37 41  0  0  0  0  0  0  0  0999 V2000
    9.5263    3.0000   -0.0000 Br  0  0  0  0  0  0  0  0  0  0  0  0
    8.6603    2.5000   -0.0000 C   0  0  0  0  0  0  0  0  0  0  0  0
    7.7942    3.0000   -0.0000 C   0  0  0  0  0  0  0  0  0  0  0  0
    8.6603    1.5000   -0.0000 C   0  0  0  0  0  0  0  0  0  0  0  0
    6.9282    2.5000   -0.0000 C   0  0  0  0  0  0  0  0  0  0  0  0
    7.7942    1.0000   -0.0000 C   0  0  0  0  0  0  0  0  0  0  0  0
    6.9282    1.5000   -0.0000 C   0  0  0  0  0  0  0  0  0  0  0  0
    6.0622    1.0000   -0.0000 C   0  0  0  0  0  0  0  0  0  0  0  0
    5.1962    1.5000   -0.0000 N   0  0  0  0  0  0  0  0  0  0  0  0
    6.0622   -0.0000   -0.0000 C   0  0  0  0  0  0  0  0  0  0  0  0
    4.3301    1.0000   -0.0000 N   0  0  0  0  0  0  0  0  0  0  0  0
    5.1962   -0.5000   -0.0000 N   0  0  0  0  0  0  0  0  0  0  0  0
    6.9282   -0.5000   -0.0000 C   0  0  0  0  0  0  0  0  0  0  0  0
    4.3301   -0.0000   -0.0000 C   0  0  0  0  0  0  0  0  0  0  0  0
    6.9282   -1.5000   -0.0000 C   0  0  0  0  0  0  0  0  0  0  0  0
    7.7942   -0.0000   -0.0000 C   0  0  0  0  0  0  0  0  0  0  0  0
    3.4641   -0.5000   -0.0000 S   0  0  0  0  0  0  0  0  0  0  0  0
    7.7942   -2.0000   -0.0000 C   0  0  0  0  0  0  0  0  0  0  0  0
    8.6603   -0.5000   -0.0000 C   0  0  0  0  0  0  0  0  0  0  0  0
    2.5981   -0.0000   -0.0000 C   0  0  0  0  0  0  0  0  0  0  0  0
    8.6603   -1.5000   -0.0000 C   0  0  0  0  0  0  0  0  0  0  0  0
    1.7321   -0.5000   -0.0000 C   0  0  0  0  0  0  0  0  0  0  0  0
    9.5263   -2.0000   -0.0000 Br  0  0  0  0  0  0  0  0  0  0  0  0
    1.7321   -1.5000   -0.0000 O   0  0  0  0  0  0  0  0  0  0  0  0
    0.8660   -0.0000   -0.0000 N   0  0  0  0  0  0  0  0  0  0  0  0
    0.0000   -0.5000   -0.0000 C   0  0  0  0  0  0  0  0  0  0  0  0
   -0.9135   -0.0933   -0.0000 S   0  0  0  0  0  0  0  0  0  0  0  0
   -0.1045   -1.4945   -0.0000 N   0  0  0  0  0  0  0  0  0  0  0  0
   -1.5827   -0.8364   -0.0000 C   0  0  0  0  0  0  0  0  0  0  0  0
   -1.0827   -1.7024   -0.0000 C   0  0  0  0  0  0  0  0  0  0  0  0
   -1.4894   -2.6160   -0.0000 C   0  0  0  0  0  0  0  0  0  0  0  0
   -2.4839   -2.7205   -0.0000 C   0  0  0  0  0  0  0  0  0  0  0  0
   -0.9016   -3.4250   -0.0000 C   0  0  0  0  0  0  0  0  0  0  0  0
   -2.8907   -3.6341   -0.0000 C   0  0  0  0  0  0  0  0  0  0  0  0
   -1.3084   -4.3385   -0.0000 C   0  0  0  0  0  0  0  0  0  0  0  0
   -2.3029   -4.4431   -0.0000 C   0  0  0  0  0  0  0  0  0  0  0  0
   -2.7096   -5.3566   -0.0000 Cl  0  0  0  0  0  0  0  0  0  0  0  0
  1  2  1  0  0  0  0
  2  3  2  0  0  0  0
  2  4  1  0  0  0  0
  3  5  1  0  0  0  0
  4  6  2  0  0  0  0
  5  7  2  0  0  0  0
  7  8  1  0  0  0  0
  8  9  2  0  0  0  0
  8 10  1  0  0  0  0
  9 11  1  0  0  0  0
 10 12  2  0  0  0  0
 10 13  1  0  0  0  0
 11 14  2  0  0  0  0
 13 15  2  0  0  0  0
 13 16  1  0  0  0  0
 14 17  1  0  0  0  0
 15 18  1  0  0  0  0
 16 19  2  0  0  0  0
 17 20  1  0  0  0  0
 18 21  2  0  0  0  0
 20 22  1  0  0  0  0
 21 23  1  0  0  0  0
 22 24  2  0  0  0  0
 22 25  1  0  0  0  0
 25 26  1  0  0  0  0
 26 27  1  0  0  0  0
 26 28  2  0  0  0  0
 27 29  1  0  0  0  0
 28 30  1  0  0  0  0
 30 31  1  0  0  0  0
 31 32  2  0  0  0  0
 31 33  1  0  0  0  0
 32 34  1  0  0  0  0
 33 35  2  0  0  0  0
 34 36  2  0  0  0  0
 36 37  1  0  0  0  0
  6  7  1  0  0  0  0
 12 14  1  0  0  0  0
 19 21  1  0  0  0  0
 29 30  2  0  0  0  0
 35 36  1  0  0  0  0
M  END
>  <S/N>
600

>  <Compound ID>
C_617

>  <PubChem CID>
155562957

>  <Isomeric SMILES>
C1=CC(=CC=C1C2=CSC(=N2)NC(=O)CSC3=NC(=C(N=N3)C4=CC=C(C=C4)Br)C5=CC=C(C=C5)Br)Cl

>  <IC50 (�M)>
2.8

>  <pIC50>
5.55

$$$$
C_618
Actelion Java MolfileCreator 1.0

 20 22  0  0  0  0  0  0  0  0999 V2000
    1.7321   -0.5000   -0.0000 O   0  0  0  0  0  0  0  0  0  0  0  0
    0.8660   -0.0000   -0.0000 C   0  0  0  0  0  0  0  0  0  0  0  0
    0.8660    1.0000   -0.0000 N   0  0  0  0  0  0  0  0  0  0  0  0
    0.0000   -0.5000   -0.0000 C   0  0  0  0  0  0  0  0  0  0  0  0
    1.6750    1.5878   -0.0000 N   0  0  0  0  0  0  0  0  0  0  0  0
    0.0570    1.5878   -0.0000 C   0  0  0  0  0  0  0  0  0  0  0  0
   -0.8660    0.0000   -0.0000 C   0  0  0  0  0  0  0  0  0  0  0  0
   -0.0000   -1.5000   -0.0000 C   0  0  0  0  0  0  0  0  0  0  0  0
    1.3660    2.5388   -0.0000 N   0  0  0  0  0  0  0  0  0  0  0  0
    0.3660    2.5388   -0.0000 C   0  0  0  0  0  0  0  0  0  0  0  0
   -0.9211    1.3799   -0.0000 C   0  0  0  0  0  0  0  0  0  0  0  0
   -1.7321   -0.5000   -0.0000 C   0  0  0  0  0  0  0  0  0  0  0  0
   -0.8660   -2.0000   -0.0000 C   0  0  0  0  0  0  0  0  0  0  0  0
   -0.3031    3.2820   -0.0000 C   0  0  0  0  0  0  0  0  0  0  0  0
   -1.5903    2.1230   -0.0000 C   0  0  0  0  0  0  0  0  0  0  0  0
   -1.7321   -1.5000   -0.0000 C   0  0  0  0  0  0  0  0  0  0  0  0
   -2.5981    0.0000   -0.0000 C   0  0  0  0  0  0  0  0  0  0  0  0
   -0.8660   -3.0000   -0.0000 C   0  0  0  0  0  0  0  0  0  0  0  0
   -1.2813    3.0741   -0.0000 C   0  0  0  0  0  0  0  0  0  0  0  0
   -2.5981   -2.0000   -0.0000 C   0  0  0  0  0  0  0  0  0  0  0  0
  1  2  2  0  0  0  0
  2  3  1  0  0  0  0
  2  4  1  0  0  0  0
  3  5  1  0  0  0  0
  3  6  1  0  0  0  0
  4  7  2  0  0  0  0
  4  8  1  0  0  0  0
  5  9  2  0  0  0  0
  6 10  2  0  0  0  0
  6 11  1  0  0  0  0
  7 12  1  0  0  0  0
  8 13  2  0  0  0  0
 10 14  1  0  0  0  0
 11 15  2  0  0  0  0
 12 16  2  0  0  0  0
 12 17  1  0  0  0  0
 13 18  1  0  0  0  0
 14 19  2  0  0  0  0
 16 20  1  0  0  0  0
  9 10  1  0  0  0  0
 13 16  1  0  0  0  0
 15 19  1  0  0  0  0
M  END
>  <S/N>
601

>  <Compound ID>
C_618

>  <PubChem CID>
155563314

>  <Isomeric SMILES>
CC1=CC(=CC(=C1C)C)C(=O)N2C3=CC=CC=C3N=N2

>  <IC50 (�M)>
4.23

>  <pIC50>
5.37

$$$$
C_619
Actelion Java MolfileCreator 1.0

 29 32  0  0  0  0  0  0  0  0999 V2000
    3.4641    5.5000   -0.0000 Br  0  0  0  0  0  0  0  0  0  0  0  0
    3.4641    4.5000   -0.0000 C   0  0  0  0  0  0  0  0  0  0  0  0
    2.5981    4.0000   -0.0000 C   0  0  0  0  0  0  0  0  0  0  0  0
    4.3301    4.0000   -0.0000 C   0  0  0  0  0  0  0  0  0  0  0  0
    2.5981    3.0000   -0.0000 C   0  0  0  0  0  0  0  0  0  0  0  0
    4.3301    3.0000   -0.0000 C   0  0  0  0  0  0  0  0  0  0  0  0
    3.4641    2.5000   -0.0000 C   0  0  0  0  0  0  0  0  0  0  0  0
    3.4641    1.5000   -0.0000 C   0  0  0  0  0  0  0  0  0  0  0  0
    2.5981    1.0000   -0.0000 N   0  0  0  0  0  0  0  0  0  0  0  0
    4.3301    1.0000   -0.0000 C   0  0  0  0  0  0  0  0  0  0  0  0
    2.5981   -0.0000   -0.0000 C   0  0  0  0  0  0  0  0  0  0  0  0
    4.3301   -0.0000   -0.0000 C   0  0  0  0  0  0  0  0  0  0  0  0
    1.7321   -0.5000   -0.0000 S   0  0  0  0  0  0  0  0  0  0  0  0
    3.4641   -0.5000   -0.0000 N   0  0  0  0  0  0  0  0  0  0  0  0
    5.1962   -0.5000   -0.0000 C   0  0  0  0  0  0  0  0  0  0  0  0
    0.8660   -0.0000   -0.0000 C   0  0  0  0  0  0  0  0  0  0  0  0
    5.1962   -1.5000   -0.0000 C   0  0  0  0  0  0  0  0  0  0  0  0
    6.0622   -0.0000   -0.0000 C   0  0  0  0  0  0  0  0  0  0  0  0
    0.0000   -0.5000   -0.0000 C   0  0  0  0  0  0  0  0  0  0  0  0
    6.0622   -2.0000   -0.0000 C   0  0  0  0  0  0  0  0  0  0  0  0
    6.9282   -0.5000   -0.0000 C   0  0  0  0  0  0  0  0  0  0  0  0
   -0.8660    0.0000   -0.0000 C   0  0  0  0  0  0  0  0  0  0  0  0
   -0.0000   -1.5000   -0.0000 C   0  0  0  0  0  0  0  0  0  0  0  0
    6.9282   -1.5000   -0.0000 C   0  0  0  0  0  0  0  0  0  0  0  0
   -0.8660    1.0000   -0.0000 Cl  0  0  0  0  0  0  0  0  0  0  0  0
   -1.7321   -0.5000   -0.0000 C   0  0  0  0  0  0  0  0  0  0  0  0
   -0.8660   -2.0000   -0.0000 C   0  0  0  0  0  0  0  0  0  0  0  0
    7.7942   -2.0000   -0.0000 Br  0  0  0  0  0  0  0  0  0  0  0  0
   -1.7321   -1.5000   -0.0000 C   0  0  0  0  0  0  0  0  0  0  0  0
  1  2  1  0  0  0  0
  2  3  2  0  0  0  0
  2  4  1  0  0  0  0
  3  5  1  0  0  0  0
  4  6  2  0  0  0  0
  5  7  2  0  0  0  0
  7  8  1  0  0  0  0
  8  9  2  0  0  0  0
  8 10  1  0  0  0  0
  9 11  1  0  0  0  0
 10 12  2  0  0  0  0
 11 13  1  0  0  0  0
 11 14  2  0  0  0  0
 12 15  1  0  0  0  0
 13 16  1  0  0  0  0
 15 17  2  0  0  0  0
 15 18  1  0  0  0  0
 16 19  1  0  0  0  0
 17 20  1  0  0  0  0
 18 21  2  0  0  0  0
 19 22  2  0  0  0  0
 19 23  1  0  0  0  0
 20 24  2  0  0  0  0
 22 25  1  0  0  0  0
 22 26  1  0  0  0  0
 23 27  2  0  0  0  0
 24 28  1  0  0  0  0
 26 29  2  0  0  0  0
  6  7  1  0  0  0  0
 12 14  1  0  0  0  0
 21 24  1  0  0  0  0
 27 29  1  0  0  0  0
M  END
>  <S/N>
602

>  <Compound ID>
C_619

>  <PubChem CID>
155563415

>  <Isomeric SMILES>
C1=CC=C(C(=C1)CSC2=NC(=CC(=N2)C3=CC=C(C=C3)Br)C4=CC=C(C=C4)Br)Cl

>  <IC50 (�M)>
19

>  <pIC50>
4.72

$$$$
C_620
Actelion Java MolfileCreator 1.0

 21 23  0  0  0  0  0  0  0  0999 V2000
    5.5800    0.5305   -0.0000 Cl  0  0  0  0  0  0  0  0  0  0  0  0
    4.6019    0.3226   -0.0000 C   0  0  0  0  0  0  0  0  0  0  0  0
    3.9328    1.0657   -0.0000 C   0  0  0  0  0  0  0  0  0  0  0  0
    4.2929   -0.6285   -0.0000 C   0  0  0  0  0  0  0  0  0  0  0  0
    4.2418    2.0168   -0.0000 Cl  0  0  0  0  0  0  0  0  0  0  0  0
    2.9546    0.8578   -0.0000 C   0  0  0  0  0  0  0  0  0  0  0  0
    3.3147   -0.8364   -0.0000 C   0  0  0  0  0  0  0  0  0  0  0  0
    2.6456   -0.0933   -0.0000 C   0  0  0  0  0  0  0  0  0  0  0  0
    2.8147   -1.7024   -0.0000 N   0  0  0  0  0  0  0  0  0  0  0  0
    1.7321   -0.5000   -0.0000 N   0  0  0  0  0  0  0  0  0  0  0  0
    1.8366   -1.4945   -0.0000 N   0  0  0  0  0  0  0  0  0  0  0  0
    0.8660   -0.0000   -0.0000 C   0  0  0  0  0  0  0  0  0  0  0  0
    0.8660    1.0000   -0.0000 O   0  0  0  0  0  0  0  0  0  0  0  0
    0.0000   -0.5000   -0.0000 C   0  0  0  0  0  0  0  0  0  0  0  0
   -0.8660    0.0000   -0.0000 C   0  0  0  0  0  0  0  0  0  0  0  0
   -0.0000   -1.5000   -0.0000 C   0  0  0  0  0  0  0  0  0  0  0  0
   -1.7321   -0.5000   -0.0000 C   0  0  0  0  0  0  0  0  0  0  0  0
   -0.8660   -2.0000   -0.0000 C   0  0  0  0  0  0  0  0  0  0  0  0
   -1.7321   -1.5000   -0.0000 C   0  0  0  0  0  0  0  0  0  0  0  0
   -2.5981    0.0000   -0.0000 C   0  0  0  0  0  0  0  0  0  0  0  0
   -2.5981   -2.0000   -0.0000 C   0  0  0  0  0  0  0  0  0  0  0  0
  1  2  1  0  0  0  0
  2  3  2  0  0  0  0
  2  4  1  0  0  0  0
  3  5  1  0  0  0  0
  3  6  1  0  0  0  0
  4  7  2  0  0  0  0
  6  8  2  0  0  0  0
  7  9  1  0  0  0  0
  8 10  1  0  0  0  0
  9 11  2  0  0  0  0
 10 12  1  0  0  0  0
 12 13  2  0  0  0  0
 12 14  1  0  0  0  0
 14 15  2  0  0  0  0
 14 16  1  0  0  0  0
 15 17  1  0  0  0  0
 16 18  2  0  0  0  0
 17 19  2  0  0  0  0
 17 20  1  0  0  0  0
 19 21  1  0  0  0  0
  7  8  1  0  0  0  0
 10 11  1  0  0  0  0
 18 19  1  0  0  0  0
M  END
>  <S/N>
603

>  <Compound ID>
C_620

>  <PubChem CID>
155563631

>  <Isomeric SMILES>
CC1=C(C=C(C=C1)C(=O)N2C3=CC(=C(C=C3N=N2)Cl)Cl)C

>  <IC50 (�M)>
3.82

>  <pIC50>
5.42

$$$$
C_621
Actelion Java MolfileCreator 1.0

 41 48  0  0  0  0  0  0  0  0999 V2000
    7.8655   -2.3899   -0.0000 O   0  0  0  0  0  0  0  0  0  0  0  0
    6.4952   -3.0000   -0.0000 C   0  0  0  0  0  0  0  0  0  0  0  0
    8.8692   -3.5046   -0.0000 C   0  0  0  0  0  0  0  0  0  0  0  0
    6.6520   -4.4918   -0.0000 N   0  0  0  0  0  0  0  0  0  0  0  0
    5.1962   -2.2500   -0.0000 C   0  0  0  0  0  0  0  0  0  0  0  0
    8.1192   -4.8037   -0.0000 N   0  0  0  0  0  0  0  0  0  0  0  0
   10.3610   -3.3478   -0.0000 C   0  0  0  0  0  0  0  0  0  0  0  0
    5.1962   -0.7500   -0.0000 C   0  0  0  0  0  0  0  0  0  0  0  0
    3.8971   -3.0000   -0.0000 C   0  0  0  0  0  0  0  0  0  0  0  0
   11.3647   -4.4625   -0.0000 C   0  0  0  0  0  0  0  0  0  0  0  0
   11.1110   -2.0488   -0.0000 C   0  0  0  0  0  0  0  0  0  0  0  0
    3.8971    0.0000   -0.0000 C   0  0  0  0  0  0  0  0  0  0  0  0
    2.5981   -2.2500   -0.0000 C   0  0  0  0  0  0  0  0  0  0  0  0
   12.7350   -3.8524   -0.0000 C   0  0  0  0  0  0  0  0  0  0  0  0
   11.2079   -5.9543   -0.0000 C   0  0  0  0  0  0  0  0  0  0  0  0
   12.5782   -2.3606   -0.0000 N   0  0  0  0  0  0  0  0  0  0  0  0
    2.5981   -0.7500   -0.0000 C   0  0  0  0  0  0  0  0  0  0  0  0
   13.9485   -4.7341   -0.0000 C   0  0  0  0  0  0  0  0  0  0  0  0
   12.4214   -6.8360   -0.0000 C   0  0  0  0  0  0  0  0  0  0  0  0
    1.2990   -0.0000   -0.0000 C   0  0  0  0  0  0  0  0  0  0  0  0
   13.7917   -6.2259   -0.0000 C   0  0  0  0  0  0  0  0  0  0  0  0
    1.2990    1.5000   -0.0000 C   0  0  0  0  0  0  0  0  0  0  0  0
    0.0000   -0.7500   -0.0000 C   0  0  0  0  0  0  0  0  0  0  0  0
    2.5126    2.3817   -0.0000 C   0  0  0  0  0  0  0  0  0  0  0  0
    0.0855    2.3817   -0.0000 C   0  0  0  0  0  0  0  0  0  0  0  0
   -1.3703   -0.1399   -0.0000 C   0  0  0  0  0  0  0  0  0  0  0  0
   -0.1568   -2.2418   -0.0000 C   0  0  0  0  0  0  0  0  0  0  0  0
    2.0490    3.8083   -0.0000 C   0  0  0  0  0  0  0  0  0  0  0  0
    3.9798    2.0698   -0.0000 C   0  0  0  0  0  0  0  0  0  0  0  0
    0.5490    3.8083   -0.0000 N   0  0  0  0  0  0  0  0  0  0  0  0
   -2.3740   -1.2546   -0.0000 C   0  0  0  0  0  0  0  0  0  0  0  0
   -1.8338    1.2867   -0.0000 C   0  0  0  0  0  0  0  0  0  0  0  0
   -1.6240   -2.5537   -0.0000 N   0  0  0  0  0  0  0  0  0  0  0  0
    3.0527    4.9230   -0.0000 C   0  0  0  0  0  0  0  0  0  0  0  0
    4.9835    3.1845   -0.0000 C   0  0  0  0  0  0  0  0  0  0  0  0
   -0.3326    5.0218   -0.0000 C   0  0  0  0  0  0  0  0  0  0  0  0
   -3.8412   -0.9427   -0.0000 C   0  0  0  0  0  0  0  0  0  0  0  0
   -3.3011    1.5986   -0.0000 C   0  0  0  0  0  0  0  0  0  0  0  0
   -2.2341   -3.9240   -0.0000 C   0  0  0  0  0  0  0  0  0  0  0  0
    4.5200    4.6111   -0.0000 C   0  0  0  0  0  0  0  0  0  0  0  0
   -4.3048    0.4838   -0.0000 C   0  0  0  0  0  0  0  0  0  0  0  0
  1  2  1  0  0  0  0
  1  3  1  0  0  0  0
  2  4  2  0  0  0  0
  2  5  1  0  0  0  0
  3  6  2  0  0  0  0
  3  7  1  0  0  0  0
  5  8  2  0  0  0  0
  5  9  1  0  0  0  0
  7 10  1  0  0  0  0
  7 11  2  0  0  0  0
  8 12  1  0  0  0  0
  9 13  2  0  0  0  0
 10 14  2  0  0  0  0
 10 15  1  0  0  0  0
 11 16  1  0  0  0  0
 12 17  2  0  0  0  0
 14 18  1  0  0  0  0
 15 19  2  0  0  0  0
 17 20  1  0  0  0  0
 18 21  2  0  0  0  0
 20 22  1  0  0  0  0
 20 23  1  0  0  0  0
 22 24  1  0  0  0  0
 22 25  2  0  0  0  0
 23 26  1  0  0  0  0
 23 27  2  0  0  0  0
 24 28  2  0  0  0  0
 24 29  1  0  0  0  0
 25 30  1  0  0  0  0
 26 31  2  0  0  0  0
 26 32  1  0  0  0  0
 27 33  1  0  0  0  0
 28 34  1  0  0  0  0
 29 35  2  0  0  0  0
 30 36  1  0  0  0  0
 31 37  1  0  0  0  0
 32 38  2  0  0  0  0
 33 39  1  0  0  0  0
 34 40  2  0  0  0  0
 37 41  2  0  0  0  0
  4  6  1  0  0  0  0
 13 17  1  0  0  0  0
 14 16  1  0  0  0  0
 19 21  1  0  0  0  0
 28 30  1  0  0  0  0
 31 33  1  0  0  0  0
 35 40  1  0  0  0  0
 38 41  1  0  0  0  0
M  END
>  <S/N>
604

>  <Compound ID>
C_621

>  <PubChem CID>
155563923

>  <Isomeric SMILES>
CN1C=C(C2=CC=CC=C21)C(C3=CC=C(C=C3)C4=NN=C(O4)C5=CNC6=CC=CC=C65)C7=CN(C8=CC=CC=C87)C

>  <IC50 (�M)>
20

>  <pIC50>
4.7

$$$$
C_622
Actelion Java MolfileCreator 1.0

 29 32  0  0  0  0  0  0  0  0999 V2000
    1.7321    4.5000   -0.0000 Br  0  0  0  0  0  0  0  0  0  0  0  0
    2.5981    4.0000   -0.0000 C   0  0  0  0  0  0  0  0  0  0  0  0
    2.5981    3.0000   -0.0000 C   0  0  0  0  0  0  0  0  0  0  0  0
    3.4641    4.5000   -0.0000 C   0  0  0  0  0  0  0  0  0  0  0  0
    3.4641    2.5000   -0.0000 C   0  0  0  0  0  0  0  0  0  0  0  0
    4.3301    4.0000   -0.0000 C   0  0  0  0  0  0  0  0  0  0  0  0
    3.4641    1.5000   -0.0000 C   0  0  0  0  0  0  0  0  0  0  0  0
    4.3301    3.0000   -0.0000 C   0  0  0  0  0  0  0  0  0  0  0  0
    2.5981    1.0000   -0.0000 N   0  0  0  0  0  0  0  0  0  0  0  0
    4.3301    1.0000   -0.0000 C   0  0  0  0  0  0  0  0  0  0  0  0
    2.5981   -0.0000   -0.0000 C   0  0  0  0  0  0  0  0  0  0  0  0
    4.3301   -0.0000   -0.0000 C   0  0  0  0  0  0  0  0  0  0  0  0
    1.7321   -0.5000   -0.0000 S   0  0  0  0  0  0  0  0  0  0  0  0
    3.4641   -0.5000   -0.0000 N   0  0  0  0  0  0  0  0  0  0  0  0
    5.1962   -0.5000   -0.0000 C   0  0  0  0  0  0  0  0  0  0  0  0
    0.8660   -0.0000   -0.0000 C   0  0  0  0  0  0  0  0  0  0  0  0
    5.1962   -1.5000   -0.0000 C   0  0  0  0  0  0  0  0  0  0  0  0
    6.0622   -0.0000   -0.0000 C   0  0  0  0  0  0  0  0  0  0  0  0
    0.0000   -0.5000   -0.0000 C   0  0  0  0  0  0  0  0  0  0  0  0
    6.0622   -2.0000   -0.0000 C   0  0  0  0  0  0  0  0  0  0  0  0
    6.9282   -0.5000   -0.0000 C   0  0  0  0  0  0  0  0  0  0  0  0
   -0.8660    0.0000   -0.0000 C   0  0  0  0  0  0  0  0  0  0  0  0
   -0.0000   -1.5000   -0.0000 C   0  0  0  0  0  0  0  0  0  0  0  0
    6.9282   -1.5000   -0.0000 C   0  0  0  0  0  0  0  0  0  0  0  0
   -0.8660    1.0000   -0.0000 Cl  0  0  0  0  0  0  0  0  0  0  0  0
   -1.7321   -0.5000   -0.0000 C   0  0  0  0  0  0  0  0  0  0  0  0
   -0.8660   -2.0000   -0.0000 C   0  0  0  0  0  0  0  0  0  0  0  0
    7.7942   -2.0000   -0.0000 Br  0  0  0  0  0  0  0  0  0  0  0  0
   -1.7321   -1.5000   -0.0000 C   0  0  0  0  0  0  0  0  0  0  0  0
  1  2  1  0  0  0  0
  2  3  2  0  0  0  0
  2  4  1  0  0  0  0
  3  5  1  0  0  0  0
  4  6  2  0  0  0  0
  5  7  1  0  0  0  0
  5  8  2  0  0  0  0
  7  9  2  0  0  0  0
  7 10  1  0  0  0  0
  9 11  1  0  0  0  0
 10 12  2  0  0  0  0
 11 13  1  0  0  0  0
 11 14  2  0  0  0  0
 12 15  1  0  0  0  0
 13 16  1  0  0  0  0
 15 17  2  0  0  0  0
 15 18  1  0  0  0  0
 16 19  1  0  0  0  0
 17 20  1  0  0  0  0
 18 21  2  0  0  0  0
 19 22  2  0  0  0  0
 19 23  1  0  0  0  0
 20 24  2  0  0  0  0
 22 25  1  0  0  0  0
 22 26  1  0  0  0  0
 23 27  2  0  0  0  0
 24 28  1  0  0  0  0
 26 29  2  0  0  0  0
  6  8  1  0  0  0  0
 12 14  1  0  0  0  0
 21 24  1  0  0  0  0
 27 29  1  0  0  0  0
M  END
>  <S/N>
605

>  <Compound ID>
C_622

>  <PubChem CID>
155564193

>  <Isomeric SMILES>
C1=CC=C(C(=C1)CSC2=NC(=CC(=N2)C3=CC(=CC=C3)Br)C4=CC=C(C=C4)Br)Cl

>  <IC50 (�M)>
19

>  <pIC50>
4.72

$$$$
C_623
Actelion Java MolfileCreator 1.0

 64 73  0  0  0  0  0  0  0  0999 V2000
    5.1962    1.5000   -0.0000 Cl  0  0  0  0  0  0  0  0  0  0  0  0
    4.3301    1.0000   -0.0000 C   0  0  0  0  0  0  0  0  0  0  0  0
    3.4641    1.5000   -0.0000 C   0  0  0  0  0  0  0  0  0  0  0  0
    4.3301    0.0000   -0.0000 C   0  0  0  0  0  0  0  0  0  0  0  0
    2.5981    1.0000   -0.0000 C   0  0  0  0  0  0  0  0  0  0  0  0
    3.4641   -0.5000   -0.0000 C   0  0  0  0  0  0  0  0  0  0  0  0
    2.5981   -0.0000   -0.0000 C   0  0  0  0  0  0  0  0  0  0  0  0
    1.7321   -0.5000   -0.0000 C   0  0  0  0  0  0  0  0  0  0  0  0
    1.7321   -1.5000   -0.0000 N   0  0  0  0  0  0  0  0  0  0  0  0
    0.8660   -0.0000   -0.0000 N   0  0  0  0  0  0  0  0  0  0  0  0
    0.9230   -2.0878   -0.0000 N   0  0  0  0  0  0  0  0  0  0  0  0
    2.5411   -2.0878   -0.0000 C   0  0  0  0  0  0  0  0  0  0  0  0
    0.0000   -0.5000   -0.0000 C   0  0  0  0  0  0  0  0  0  0  0  0
    1.2321   -3.0388   -0.0000 C   0  0  0  0  0  0  0  0  0  0  0  0
    3.4921   -1.7788   -0.0000 S   0  0  0  0  0  0  0  0  0  0  0  0
    2.2321   -3.0388   -0.0000 O   0  0  0  0  0  0  0  0  0  0  0  0
   -0.8660    0.0000   -0.0000 C   0  0  0  0  0  0  0  0  0  0  0  0
   -0.0000   -1.5000   -0.0000 C   0  0  0  0  0  0  0  0  0  0  0  0
    0.6443   -3.8479   -0.0000 C   0  0  0  0  0  0  0  0  0  0  0  0
   -1.7321   -0.5000   -0.0000 C   0  0  0  0  0  0  0  0  0  0  0  0
   -0.8660   -2.0000   -0.0000 C   0  0  0  0  0  0  0  0  0  0  0  0
   -0.3503   -3.7433   -0.0000 C   0  0  0  0  0  0  0  0  0  0  0  0
    1.0510   -4.7614   -0.0000 C   0  0  0  0  0  0  0  0  0  0  0  0
   -1.7321   -1.5000   -0.0000 C   0  0  0  0  0  0  0  0  0  0  0  0
   -0.7570   -2.8298   -0.0000 O   0  0  0  0  0  0  0  0  0  0  0  0
   -0.9380   -4.5523   -0.0000 O   0  0  0  0  0  0  0  0  0  0  0  0
    0.4632   -5.5704   -0.0000 C   0  0  0  0  0  0  0  0  0  0  0  0
   -2.5981   -2.0000   -0.0000 C   0  0  0  0  0  0  0  0  0  0  0  0
   -0.5313   -5.4659   -0.0000 C   0  0  0  0  0  0  0  0  0  0  0  0
    0.8700   -6.4840   -0.0000 C   0  0  0  0  0  0  0  0  0  0  0  0
   -3.4641   -1.5000   -0.0000 C   0  0  0  0  0  0  0  0  0  0  0  0
   -2.5981   -3.0000   -0.0000 C   0  0  0  0  0  0  0  0  0  0  0  0
   -1.1191   -6.2749   -0.0000 C   0  0  0  0  0  0  0  0  0  0  0  0
    0.2822   -7.2930   -0.0000 C   0  0  0  0  0  0  0  0  0  0  0  0
   -4.3301   -2.0000   -0.0000 C   0  0  0  0  0  0  0  0  0  0  0  0
   -3.4641   -3.5000   -0.0000 C   0  0  0  0  0  0  0  0  0  0  0  0
   -0.7124   -7.1885   -0.0000 C   0  0  0  0  0  0  0  0  0  0  0  0
   -4.3301   -3.0000   -0.0000 C   0  0  0  0  0  0  0  0  0  0  0  0
   -5.1962   -3.5000   -0.0000 N   0  0  0  0  0  0  0  0  0  0  0  0
   -6.0622   -3.0000   -0.0000 C   0  0  0  0  0  0  0  0  0  0  0  0
   -6.9282   -3.5000   -0.0000 N   0  0  0  0  0  0  0  0  0  0  0  0
   -6.0622   -2.0000   -0.0000 C   0  0  0  0  0  0  0  0  0  0  0  0
   -7.8417   -3.0933   -0.0000 N   0  0  0  0  0  0  0  0  0  0  0  0
   -7.0327   -4.4945   -0.0000 C   0  0  0  0  0  0  0  0  0  0  0  0
   -6.9282   -1.5000   -0.0000 C   0  0  0  0  0  0  0  0  0  0  0  0
   -5.1962   -1.5000   -0.0000 C   0  0  0  0  0  0  0  0  0  0  0  0
   -8.5109   -3.8364   -0.0000 C   0  0  0  0  0  0  0  0  0  0  0  0
   -6.2896   -5.1637   -0.0000 S   0  0  0  0  0  0  0  0  0  0  0  0
   -8.0109   -4.7024   -0.0000 O   0  0  0  0  0  0  0  0  0  0  0  0
   -6.9282   -0.5000   -0.0000 C   0  0  0  0  0  0  0  0  0  0  0  0
   -5.1962   -0.5000   -0.0000 C   0  0  0  0  0  0  0  0  0  0  0  0
   -9.5054   -3.7319   -0.0000 C   0  0  0  0  0  0  0  0  0  0  0  0
   -6.0622    0.0000   -0.0000 C   0  0  0  0  0  0  0  0  0  0  0  0
   -9.9121   -2.8183   -0.0000 C   0  0  0  0  0  0  0  0  0  0  0  0
  -10.0932   -4.5409   -0.0000 C   0  0  0  0  0  0  0  0  0  0  0  0
   -6.0622    1.0000   -0.0000 Cl  0  0  0  0  0  0  0  0  0  0  0  0
  -10.9067   -2.7138   -0.0000 C   0  0  0  0  0  0  0  0  0  0  0  0
   -9.3244   -2.0093   -0.0000 C   0  0  0  0  0  0  0  0  0  0  0  0
  -11.0877   -4.4364   -0.0000 C   0  0  0  0  0  0  0  0  0  0  0  0
  -11.4944   -3.5228   -0.0000 O   0  0  0  0  0  0  0  0  0  0  0  0
  -11.3134   -1.8003   -0.0000 C   0  0  0  0  0  0  0  0  0  0  0  0
   -9.7311   -1.0958   -0.0000 C   0  0  0  0  0  0  0  0  0  0  0  0
  -11.6755   -5.2454   -0.0000 O   0  0  0  0  0  0  0  0  0  0  0  0
  -10.7256   -0.9912   -0.0000 C   0  0  0  0  0  0  0  0  0  0  0  0
  1  2  1  0  0  0  0
  2  3  2  0  0  0  0
  2  4  1  0  0  0  0
  3  5  1  0  0  0  0
  4  6  2  0  0  0  0
  5  7  2  0  0  0  0
  7  8  1  0  0  0  0
  8  9  1  0  0  0  0
  8 10  1  0  0  0  0
  9 11  1  0  0  0  0
  9 12  1  0  0  0  0
 10 13  1  0  0  0  0
 11 14  2  0  0  0  0
 12 15  2  0  0  0  0
 12 16  1  0  0  0  0
 13 17  2  0  0  0  0
 13 18  1  0  0  0  0
 14 19  1  0  0  0  0
 17 20  1  0  0  0  0
 18 21  2  0  0  0  0
 19 22  1  0  0  0  0
 19 23  2  0  0  0  0
 20 24  2  0  0  0  0
 22 25  2  0  0  0  0
 22 26  1  0  0  0  0
 23 27  1  0  0  0  0
 24 28  1  0  0  0  0
 26 29  1  0  0  0  0
 27 30  2  0  0  0  0
 28 31  2  0  0  0  0
 28 32  1  0  0  0  0
 29 33  2  0  0  0  0
 30 34  1  0  0  0  0
 31 35  1  0  0  0  0
 32 36  2  0  0  0  0
 33 37  1  0  0  0  0
 35 38  2  0  0  0  0
 38 39  1  0  0  0  0
 39 40  1  0  0  0  0
 40 41  1  0  0  0  0
 40 42  1  0  0  0  0
 41 43  1  0  0  0  0
 41 44  1  0  0  0  0
 42 45  2  0  0  0  0
 42 46  1  0  0  0  0
 43 47  2  0  0  0  0
 44 48  2  0  0  0  0
 44 49  1  0  0  0  0
 45 50  1  0  0  0  0
 46 51  2  0  0  0  0
 47 52  1  0  0  0  0
 50 53  2  0  0  0  0
 52 54  1  0  0  0  0
 52 55  2  0  0  0  0
 53 56  1  0  0  0  0
 54 57  2  0  0  0  0
 54 58  1  0  0  0  0
 55 59  1  0  0  0  0
 57 60  1  0  0  0  0
 57 61  1  0  0  0  0
 58 62  2  0  0  0  0
 59 63  2  0  0  0  0
 61 64  2  0  0  0  0
  6  7  1  0  0  0  0
 14 16  1  0  0  0  0
 21 24  1  0  0  0  0
 27 29  1  0  0  0  0
 34 37  2  0  0  0  0
 36 38  1  0  0  0  0
 47 49  1  0  0  0  0
 51 53  1  0  0  0  0
 59 60  1  0  0  0  0
 62 64  1  0  0  0  0
M  END
>  <S/N>
606

>  <Compound ID>
C_623

>  <PubChem CID>
155564556

>  <Isomeric SMILES>
C1=CC=C2C(=C1)C=C(C(=O)O2)C3=NN(C(=S)O3)C(C4=CC=C(C=C4)Cl)NC5=CC=C(C=C5)C6=CC=C(C=C6)NC(C7=CC=C(C=C7)Cl)N8C(=S)OC(=N8)C9=CC(=O)OC1=CC=CC=C19

>  <IC50 (�M)>
0.07

>  <pIC50>
7.15

$$$$
C_624
Actelion Java MolfileCreator 1.0

 21 23  0  0  0  0  0  0  0  0999 V2000
    1.7321    1.5000   -0.0000 O   0  0  0  0  0  0  0  0  0  0  0  0
    0.8660    1.0000   -0.0000 C   0  0  0  0  0  0  0  0  0  0  0  0
    0.0000    1.5000   -0.0000 C   0  0  0  0  0  0  0  0  0  0  0  0
    0.8660   -0.0000   -0.0000 C   0  0  0  0  0  0  0  0  0  0  0  0
    0.0000    2.5000   -0.0000 C   0  0  0  0  0  0  0  0  0  0  0  0
   -0.8660    1.0000   -0.0000 C   0  0  0  0  0  0  0  0  0  0  0  0
    0.0000   -0.5000   -0.0000 N   0  0  0  0  0  0  0  0  0  0  0  0
    0.8660    3.0000   -0.0000 O   0  0  0  0  0  0  0  0  0  0  0  0
   -0.8660    3.0000   -0.0000 C   0  0  0  0  0  0  0  0  0  0  0  0
   -1.7321    1.5000   -0.0000 C   0  0  0  0  0  0  0  0  0  0  0  0
   -0.9135   -0.0933   -0.0000 N   0  0  0  0  0  0  0  0  0  0  0  0
   -0.1045   -1.4945   -0.0000 C   0  0  0  0  0  0  0  0  0  0  0  0
   -1.7321    2.5000   -0.0000 C   0  0  0  0  0  0  0  0  0  0  0  0
   -1.5827   -0.8364   -0.0000 N   0  0  0  0  0  0  0  0  0  0  0  0
   -1.0827   -1.7024   -0.0000 C   0  0  0  0  0  0  0  0  0  0  0  0
    0.5646   -2.2377   -0.0000 C   0  0  0  0  0  0  0  0  0  0  0  0
   -1.3917   -2.6535   -0.0000 C   0  0  0  0  0  0  0  0  0  0  0  0
    0.2556   -3.1887   -0.0000 C   0  0  0  0  0  0  0  0  0  0  0  0
   -0.7226   -3.3966   -0.0000 C   0  0  0  0  0  0  0  0  0  0  0  0
    0.9247   -3.9319   -0.0000 C   0  0  0  0  0  0  0  0  0  0  0  0
   -1.0316   -4.3477   -0.0000 C   0  0  0  0  0  0  0  0  0  0  0  0
  1  2  2  0  0  0  0
  2  3  1  0  0  0  0
  2  4  1  0  0  0  0
  3  5  2  0  0  0  0
  3  6  1  0  0  0  0
  4  7  1  0  0  0  0
  5  8  1  0  0  0  0
  5  9  1  0  0  0  0
  6 10  2  0  0  0  0
  7 11  1  0  0  0  0
  7 12  1  0  0  0  0
  9 13  2  0  0  0  0
 11 14  2  0  0  0  0
 12 15  2  0  0  0  0
 12 16  1  0  0  0  0
 15 17  1  0  0  0  0
 16 18  2  0  0  0  0
 17 19  2  0  0  0  0
 18 20  1  0  0  0  0
 19 21  1  0  0  0  0
 10 13  1  0  0  0  0
 14 15  1  0  0  0  0
 18 19  1  0  0  0  0
M  END
>  <S/N>
607

>  <Compound ID>
C_624

>  <PubChem CID>
155564904

>  <Isomeric SMILES>
CC1=CC2=C(C=C1C)N(N=N2)CC(=O)C3=CC=CC=C3O

>  <IC50 (�M)>
3.3

>  <pIC50>
5.48

$$$$
C_625
Actelion Java MolfileCreator 1.0

 42 49  0  0  0  0  0  0  0  0999 V2000
    7.8655   -2.3899   -0.0000 O   0  0  0  0  0  0  0  0  0  0  0  0
    6.4952   -3.0000   -0.0000 C   0  0  0  0  0  0  0  0  0  0  0  0
    8.8692   -3.5046   -0.0000 C   0  0  0  0  0  0  0  0  0  0  0  0
    6.6520   -4.4918   -0.0000 N   0  0  0  0  0  0  0  0  0  0  0  0
    5.1962   -2.2500   -0.0000 C   0  0  0  0  0  0  0  0  0  0  0  0
    8.1192   -4.8037   -0.0000 N   0  0  0  0  0  0  0  0  0  0  0  0
   10.3610   -3.3478   -0.0000 C   0  0  0  0  0  0  0  0  0  0  0  0
    5.1962   -0.7500   -0.0000 C   0  0  0  0  0  0  0  0  0  0  0  0
    3.8971   -3.0000   -0.0000 C   0  0  0  0  0  0  0  0  0  0  0  0
   11.3647   -4.4625   -0.0000 C   0  0  0  0  0  0  0  0  0  0  0  0
   11.1110   -2.0488   -0.0000 C   0  0  0  0  0  0  0  0  0  0  0  0
    3.8971    0.0000   -0.0000 C   0  0  0  0  0  0  0  0  0  0  0  0
    2.5981   -2.2500   -0.0000 C   0  0  0  0  0  0  0  0  0  0  0  0
   12.7350   -3.8524   -0.0000 C   0  0  0  0  0  0  0  0  0  0  0  0
   11.2079   -5.9543   -0.0000 C   0  0  0  0  0  0  0  0  0  0  0  0
   12.5782   -2.3606   -0.0000 N   0  0  0  0  0  0  0  0  0  0  0  0
    2.5981   -0.7500   -0.0000 C   0  0  0  0  0  0  0  0  0  0  0  0
   13.9485   -4.7341   -0.0000 C   0  0  0  0  0  0  0  0  0  0  0  0
   12.4214   -6.8360   -0.0000 C   0  0  0  0  0  0  0  0  0  0  0  0
   13.6929   -1.3570   -0.0000 C   0  0  0  0  0  0  0  0  0  0  0  0
    1.2990   -0.0000   -0.0000 C   0  0  0  0  0  0  0  0  0  0  0  0
   13.7917   -6.2259   -0.0000 C   0  0  0  0  0  0  0  0  0  0  0  0
    1.2990    1.5000   -0.0000 C   0  0  0  0  0  0  0  0  0  0  0  0
    0.0000   -0.7500   -0.0000 C   0  0  0  0  0  0  0  0  0  0  0  0
    2.5126    2.3817   -0.0000 C   0  0  0  0  0  0  0  0  0  0  0  0
    0.0855    2.3817   -0.0000 C   0  0  0  0  0  0  0  0  0  0  0  0
   -1.3703   -0.1399   -0.0000 C   0  0  0  0  0  0  0  0  0  0  0  0
   -0.1568   -2.2418   -0.0000 C   0  0  0  0  0  0  0  0  0  0  0  0
    2.0490    3.8083   -0.0000 C   0  0  0  0  0  0  0  0  0  0  0  0
    3.9798    2.0698   -0.0000 C   0  0  0  0  0  0  0  0  0  0  0  0
    0.5490    3.8083   -0.0000 N   0  0  0  0  0  0  0  0  0  0  0  0
   -2.3740   -1.2546   -0.0000 C   0  0  0  0  0  0  0  0  0  0  0  0
   -1.8338    1.2867   -0.0000 C   0  0  0  0  0  0  0  0  0  0  0  0
   -1.6240   -2.5537   -0.0000 N   0  0  0  0  0  0  0  0  0  0  0  0
    3.0527    4.9230   -0.0000 C   0  0  0  0  0  0  0  0  0  0  0  0
    4.9835    3.1845   -0.0000 C   0  0  0  0  0  0  0  0  0  0  0  0
   -0.3326    5.0218   -0.0000 C   0  0  0  0  0  0  0  0  0  0  0  0
   -3.8412   -0.9427   -0.0000 C   0  0  0  0  0  0  0  0  0  0  0  0
   -3.3011    1.5986   -0.0000 C   0  0  0  0  0  0  0  0  0  0  0  0
   -2.2341   -3.9240   -0.0000 C   0  0  0  0  0  0  0  0  0  0  0  0
    4.5200    4.6111   -0.0000 C   0  0  0  0  0  0  0  0  0  0  0  0
   -4.3048    0.4838   -0.0000 C   0  0  0  0  0  0  0  0  0  0  0  0
  1  2  1  0  0  0  0
  1  3  1  0  0  0  0
  2  4  2  0  0  0  0
  2  5  1  0  0  0  0
  3  6  2  0  0  0  0
  3  7  1  0  0  0  0
  5  8  2  0  0  0  0
  5  9  1  0  0  0  0
  7 10  1  0  0  0  0
  7 11  2  0  0  0  0
  8 12  1  0  0  0  0
  9 13  2  0  0  0  0
 10 14  2  0  0  0  0
 10 15  1  0  0  0  0
 11 16  1  0  0  0  0
 12 17  2  0  0  0  0
 14 18  1  0  0  0  0
 15 19  2  0  0  0  0
 16 20  1  0  0  0  0
 17 21  1  0  0  0  0
 18 22  2  0  0  0  0
 21 23  1  0  0  0  0
 21 24  1  0  0  0  0
 23 25  1  0  0  0  0
 23 26  2  0  0  0  0
 24 27  1  0  0  0  0
 24 28  2  0  0  0  0
 25 29  2  0  0  0  0
 25 30  1  0  0  0  0
 26 31  1  0  0  0  0
 27 32  2  0  0  0  0
 27 33  1  0  0  0  0
 28 34  1  0  0  0  0
 29 35  1  0  0  0  0
 30 36  2  0  0  0  0
 31 37  1  0  0  0  0
 32 38  1  0  0  0  0
 33 39  2  0  0  0  0
 34 40  1  0  0  0  0
 35 41  2  0  0  0  0
 38 42  2  0  0  0  0
  4  6  1  0  0  0  0
 13 17  1  0  0  0  0
 14 16  1  0  0  0  0
 19 22  1  0  0  0  0
 29 31  1  0  0  0  0
 32 34  1  0  0  0  0
 36 41  1  0  0  0  0
 39 42  1  0  0  0  0
M  END
>  <S/N>
608

>  <Compound ID>
C_625

>  <PubChem CID>
155565000

>  <Isomeric SMILES>
CN1C=C(C2=CC=CC=C21)C3=NN=C(O3)C4=CC=C(C=C4)C(C5=CN(C6=CC=CC=C65)C)C7=CN(C8=CC=CC=C87)C

>  <IC50 (�M)>
20

>  <pIC50>
4.7

$$$$
C_626
Actelion Java MolfileCreator 1.0

 36 40  0  0  0  0  0  0  0  0999 V2000
    9.5263    3.0000   -0.0000 Br  0  0  0  0  0  0  0  0  0  0  0  0
    8.6603    2.5000   -0.0000 C   0  0  0  0  0  0  0  0  0  0  0  0
    7.7942    3.0000   -0.0000 C   0  0  0  0  0  0  0  0  0  0  0  0
    8.6603    1.5000   -0.0000 C   0  0  0  0  0  0  0  0  0  0  0  0
    6.9282    2.5000   -0.0000 C   0  0  0  0  0  0  0  0  0  0  0  0
    7.7942    1.0000   -0.0000 C   0  0  0  0  0  0  0  0  0  0  0  0
    6.9282    1.5000   -0.0000 C   0  0  0  0  0  0  0  0  0  0  0  0
    6.0622    1.0000   -0.0000 C   0  0  0  0  0  0  0  0  0  0  0  0
    5.1962    1.5000   -0.0000 N   0  0  0  0  0  0  0  0  0  0  0  0
    6.0622   -0.0000   -0.0000 C   0  0  0  0  0  0  0  0  0  0  0  0
    4.3301    1.0000   -0.0000 N   0  0  0  0  0  0  0  0  0  0  0  0
    5.1962   -0.5000   -0.0000 N   0  0  0  0  0  0  0  0  0  0  0  0
    6.9282   -0.5000   -0.0000 C   0  0  0  0  0  0  0  0  0  0  0  0
    4.3301   -0.0000   -0.0000 C   0  0  0  0  0  0  0  0  0  0  0  0
    6.9282   -1.5000   -0.0000 C   0  0  0  0  0  0  0  0  0  0  0  0
    7.7942   -0.0000   -0.0000 C   0  0  0  0  0  0  0  0  0  0  0  0
    3.4641   -0.5000   -0.0000 S   0  0  0  0  0  0  0  0  0  0  0  0
    7.7942   -2.0000   -0.0000 C   0  0  0  0  0  0  0  0  0  0  0  0
    8.6603   -0.5000   -0.0000 C   0  0  0  0  0  0  0  0  0  0  0  0
    2.5981   -0.0000   -0.0000 C   0  0  0  0  0  0  0  0  0  0  0  0
    8.6603   -1.5000   -0.0000 C   0  0  0  0  0  0  0  0  0  0  0  0
    1.7321   -0.5000   -0.0000 C   0  0  0  0  0  0  0  0  0  0  0  0
    9.5263   -2.0000   -0.0000 Br  0  0  0  0  0  0  0  0  0  0  0  0
    1.7321   -1.5000   -0.0000 O   0  0  0  0  0  0  0  0  0  0  0  0
    0.8660   -0.0000   -0.0000 N   0  0  0  0  0  0  0  0  0  0  0  0
    0.0000   -0.5000   -0.0000 C   0  0  0  0  0  0  0  0  0  0  0  0
   -0.9135   -0.0933   -0.0000 S   0  0  0  0  0  0  0  0  0  0  0  0
   -0.1045   -1.4945   -0.0000 N   0  0  0  0  0  0  0  0  0  0  0  0
   -1.5827   -0.8364   -0.0000 C   0  0  0  0  0  0  0  0  0  0  0  0
   -1.0827   -1.7024   -0.0000 C   0  0  0  0  0  0  0  0  0  0  0  0
   -1.4894   -2.6160   -0.0000 C   0  0  0  0  0  0  0  0  0  0  0  0
   -2.4839   -2.7205   -0.0000 C   0  0  0  0  0  0  0  0  0  0  0  0
   -0.9016   -3.4250   -0.0000 C   0  0  0  0  0  0  0  0  0  0  0  0
   -2.8907   -3.6341   -0.0000 C   0  0  0  0  0  0  0  0  0  0  0  0
   -1.3084   -4.3385   -0.0000 C   0  0  0  0  0  0  0  0  0  0  0  0
   -2.3029   -4.4431   -0.0000 C   0  0  0  0  0  0  0  0  0  0  0  0
  1  2  1  0  0  0  0
  2  3  2  0  0  0  0
  2  4  1  0  0  0  0
  3  5  1  0  0  0  0
  4  6  2  0  0  0  0
  5  7  2  0  0  0  0
  7  8  1  0  0  0  0
  8  9  2  0  0  0  0
  8 10  1  0  0  0  0
  9 11  1  0  0  0  0
 10 12  2  0  0  0  0
 10 13  1  0  0  0  0
 11 14  2  0  0  0  0
 13 15  2  0  0  0  0
 13 16  1  0  0  0  0
 14 17  1  0  0  0  0
 15 18  1  0  0  0  0
 16 19  2  0  0  0  0
 17 20  1  0  0  0  0
 18 21  2  0  0  0  0
 20 22  1  0  0  0  0
 21 23  1  0  0  0  0
 22 24  2  0  0  0  0
 22 25  1  0  0  0  0
 25 26  1  0  0  0  0
 26 27  1  0  0  0  0
 26 28  2  0  0  0  0
 27 29  1  0  0  0  0
 28 30  1  0  0  0  0
 30 31  1  0  0  0  0
 31 32  2  0  0  0  0
 31 33  1  0  0  0  0
 32 34  1  0  0  0  0
 33 35  2  0  0  0  0
 34 36  2  0  0  0  0
  6  7  1  0  0  0  0
 12 14  1  0  0  0  0
 19 21  1  0  0  0  0
 29 30  2  0  0  0  0
 35 36  1  0  0  0  0
M  END
>  <S/N>
609

>  <Compound ID>
C_626

>  <PubChem CID>
155565007

>  <Isomeric SMILES>
C1=CC=C(C=C1)C2=CSC(=N2)NC(=O)CSC3=NC(=C(N=N3)C4=CC=C(C=C4)Br)C5=CC=C(C=C5)Br

>  <IC50 (�M)>
2.8

>  <pIC50>
5.55

$$$$
C_627
Actelion Java MolfileCreator 1.0

 40 46  0  0  0  0  0  0  0  0999 V2000
    3.4641   -0.5000   -0.0000 Cl  0  0  0  0  0  0  0  0  0  0  0  0
    2.5981    0.0000   -0.0000 C   0  0  0  0  0  0  0  0  0  0  0  0
    1.7321   -0.5000   -0.0000 C   0  0  0  0  0  0  0  0  0  0  0  0
    2.5981    1.0000   -0.0000 C   0  0  0  0  0  0  0  0  0  0  0  0
    0.8660   -0.0000   -0.0000 C   0  0  0  0  0  0  0  0  0  0  0  0
    1.7321    1.5000   -0.0000 C   0  0  0  0  0  0  0  0  0  0  0  0
    0.0000   -0.5000   -0.0000 N   0  0  0  0  0  0  0  0  0  0  0  0
    0.8660    1.0000   -0.0000 C   0  0  0  0  0  0  0  0  0  0  0  0
   -0.9135   -0.0933   -0.0000 C   0  0  0  0  0  0  0  0  0  0  0  0
   -0.1045   -1.4945   -0.0000 C   0  0  0  0  0  0  0  0  0  0  0  0
   -1.5827   -0.8364   -0.0000 N   0  0  0  0  0  0  0  0  0  0  0  0
   -1.1215    0.8849   -0.0000 C   0  0  0  0  0  0  0  0  0  0  0  0
    0.6386   -2.1637   -0.0000 C   0  0  0  0  0  0  0  0  0  0  0  0
   -1.0827   -1.7024   -0.0000 C   0  0  0  0  0  0  0  0  0  0  0  0
   -2.0350    1.2916   -0.0000 C   0  0  0  0  0  0  0  0  0  0  0  0
   -0.4523    1.6280   -0.0000 C   0  0  0  0  0  0  0  0  0  0  0  0
    0.4307   -3.1418   -0.0000 C   0  0  0  0  0  0  0  0  0  0  0  0
    1.5897   -1.8546   -0.0000 C   0  0  0  0  0  0  0  0  0  0  0  0
   -1.4894   -2.6160   -0.0000 C   0  0  0  0  0  0  0  0  0  0  0  0
   -1.9305    2.2861   -0.0000 N   0  0  0  0  0  0  0  0  0  0  0  0
   -2.9010    0.7916   -0.0000 C   0  0  0  0  0  0  0  0  0  0  0  0
   -0.9523    2.4941   -0.0000 C   0  0  0  0  0  0  0  0  0  0  0  0
    0.5477    1.6280   -0.0000 C   0  0  0  0  0  0  0  0  0  0  0  0
    1.1738   -3.8109   -0.0000 C   0  0  0  0  0  0  0  0  0  0  0  0
    2.3328   -2.5238   -0.0000 C   0  0  0  0  0  0  0  0  0  0  0  0
   -2.4839   -2.7205   -0.0000 C   0  0  0  0  0  0  0  0  0  0  0  0
   -0.9016   -3.4250   -0.0000 C   0  0  0  0  0  0  0  0  0  0  0  0
   -2.9010   -0.2084   -0.0000 C   0  0  0  0  0  0  0  0  0  0  0  0
   -3.7671    1.2916   -0.0000 C   0  0  0  0  0  0  0  0  0  0  0  0
   -0.4523    3.3601   -0.0000 C   0  0  0  0  0  0  0  0  0  0  0  0
    1.0477    2.4941   -0.0000 C   0  0  0  0  0  0  0  0  0  0  0  0
    2.1249   -3.5019   -0.0000 C   0  0  0  0  0  0  0  0  0  0  0  0
   -2.8907   -3.6341   -0.0000 C   0  0  0  0  0  0  0  0  0  0  0  0
   -1.3084   -4.3385   -0.0000 C   0  0  0  0  0  0  0  0  0  0  0  0
   -3.7671   -0.7084   -0.0000 C   0  0  0  0  0  0  0  0  0  0  0  0
   -4.6331    0.7916   -0.0000 C   0  0  0  0  0  0  0  0  0  0  0  0
    0.5477    3.3601   -0.0000 C   0  0  0  0  0  0  0  0  0  0  0  0
    2.0477    2.4941   -0.0000 F   0  0  0  0  0  0  0  0  0  0  0  0
   -2.3029   -4.4431   -0.0000 C   0  0  0  0  0  0  0  0  0  0  0  0
   -4.6331   -0.2084   -0.0000 C   0  0  0  0  0  0  0  0  0  0  0  0
  1  2  1  0  0  0  0
  2  3  2  0  0  0  0
  2  4  1  0  0  0  0
  3  5  1  0  0  0  0
  4  6  2  0  0  0  0
  5  7  1  0  0  0  0
  5  8  2  0  0  0  0
  7  9  1  0  0  0  0
  7 10  1  0  0  0  0
  9 11  2  0  0  0  0
  9 12  1  0  0  0  0
 10 13  1  0  0  0  0
 10 14  2  0  0  0  0
 12 15  2  0  0  0  0
 12 16  1  0  0  0  0
 13 17  2  0  0  0  0
 13 18  1  0  0  0  0
 14 19  1  0  0  0  0
 15 20  1  0  0  0  0
 15 21  1  0  0  0  0
 16 22  2  0  0  0  0
 16 23  1  0  0  0  0
 17 24  1  0  0  0  0
 18 25  2  0  0  0  0
 19 26  2  0  0  0  0
 19 27  1  0  0  0  0
 21 28  2  0  0  0  0
 21 29  1  0  0  0  0
 22 30  1  0  0  0  0
 23 31  2  0  0  0  0
 24 32  2  0  0  0  0
 26 33  1  0  0  0  0
 27 34  2  0  0  0  0
 28 35  1  0  0  0  0
 29 36  2  0  0  0  0
 30 37  2  0  0  0  0
 31 38  1  0  0  0  0
 33 39  2  0  0  0  0
 35 40  2  0  0  0  0
  6  8  1  0  0  0  0
 11 14  1  0  0  0  0
 20 22  1  0  0  0  0
 25 32  1  0  0  0  0
 31 37  1  0  0  0  0
 34 39  1  0  0  0  0
 36 40  1  0  0  0  0
M  END
>  <S/N>
610

>  <Compound ID>
C_627

>  <PubChem CID>
155565566

>  <Isomeric SMILES>
C1=CC=C(C=C1)C2=C(C3=C(N2)C=CC(=C3)F)C4=NC(=C(N4C5=CC(=CC=C5)Cl)C6=CC=CC=C6)C7=CC=CC=C7

>  <IC50 (�M)>
8.3

>  <pIC50>
5.08

$$$$
C_628
Actelion Java MolfileCreator 1.0

 25 28  0  0  0  0  0  0  0  0999 V2000
    5.6808    2.9345   -0.0000 Cl  0  0  0  0  0  0  0  0  0  0  0  0
    5.1808    2.0685   -0.0000 C   0  0  0  0  0  0  0  0  0  0  0  0
    4.1808    2.0685   -0.0000 C   0  0  0  0  0  0  0  0  0  0  0  0
    5.6808    1.2024   -0.0000 C   0  0  0  0  0  0  0  0  0  0  0  0
    3.6808    1.2024   -0.0000 C   0  0  0  0  0  0  0  0  0  0  0  0
    5.1808    0.3364   -0.0000 C   0  0  0  0  0  0  0  0  0  0  0  0
    2.7026    0.9945   -0.0000 N   0  0  0  0  0  0  0  0  0  0  0  0
    4.1808    0.3364   -0.0000 C   0  0  0  0  0  0  0  0  0  0  0  0
    2.5981   -0.0000   -0.0000 C   0  0  0  0  0  0  0  0  0  0  0  0
    3.5116   -0.4067   -0.0000 S   0  0  0  0  0  0  0  0  0  0  0  0
    1.7321   -0.5000   -0.0000 S   0  0  0  0  0  0  0  0  0  0  0  0
    0.8660   -0.0000   -0.0000 C   0  0  0  0  0  0  0  0  0  0  0  0
    0.0000   -0.5000   -0.0000 C   0  0  0  0  0  0  0  0  0  0  0  0
   -0.9135   -0.0933   -0.0000 N   0  0  0  0  0  0  0  0  0  0  0  0
   -0.1045   -1.4945   -0.0000 C   0  0  0  0  0  0  0  0  0  0  0  0
   -1.5827   -0.8364   -0.0000 N   0  0  0  0  0  0  0  0  0  0  0  0
   -1.0827   -1.7024   -0.0000 N   0  0  0  0  0  0  0  0  0  0  0  0
   -1.4894   -2.6160   -0.0000 C   0  0  0  0  0  0  0  0  0  0  0  0
   -0.9016   -3.4250   -0.0000 C   0  0  0  0  0  0  0  0  0  0  0  0
   -1.3084   -4.3385   -0.0000 C   0  0  0  0  0  0  0  0  0  0  0  0
    0.0929   -3.3205   -0.0000 C   0  0  0  0  0  0  0  0  0  0  0  0
   -0.7206   -5.1476   -0.0000 C   0  0  0  0  0  0  0  0  0  0  0  0
    0.6807   -4.1295   -0.0000 C   0  0  0  0  0  0  0  0  0  0  0  0
   -1.1273   -6.0611   -0.0000 F   0  0  0  0  0  0  0  0  0  0  0  0
    0.2739   -5.0430   -0.0000 C   0  0  0  0  0  0  0  0  0  0  0  0
  1  2  1  0  0  0  0
  2  3  2  0  0  0  0
  2  4  1  0  0  0  0
  3  5  1  0  0  0  0
  4  6  2  0  0  0  0
  5  7  1  0  0  0  0
  5  8  2  0  0  0  0
  7  9  2  0  0  0  0
  8 10  1  0  0  0  0
  9 11  1  0  0  0  0
 11 12  1  0  0  0  0
 12 13  1  0  0  0  0
 13 14  1  0  0  0  0
 13 15  2  0  0  0  0
 14 16  2  0  0  0  0
 15 17  1  0  0  0  0
 17 18  1  0  0  0  0
 18 19  1  0  0  0  0
 19 20  2  0  0  0  0
 19 21  1  0  0  0  0
 20 22  1  0  0  0  0
 21 23  2  0  0  0  0
 22 24  1  0  0  0  0
 22 25  2  0  0  0  0
  6  8  1  0  0  0  0
  9 10  1  0  0  0  0
 16 17  1  0  0  0  0
 23 25  1  0  0  0  0
M  END
>  <S/N>
611

>  <Compound ID>
C_628

>  <PubChem CID>
155565848

>  <Isomeric SMILES>
C1=CC(=CC(=C1)F)CN2C=C(N=N2)CSC3=NC4=C(S3)C=CC(=C4)Cl

>  <IC50 (�M)>
20

>  <pIC50>
4.7

$$$$
C_629
Actelion Java MolfileCreator 1.0

 35 37  0  0  0  0  0  0  0  0999 V2000
   12.9904   -2.2500   -0.0000 O   0  0  0  0  0  0  0  0  0  0  0  0
   14.2894   -3.0000   -0.0000 C   0  0  0  0  0  0  0  0  0  0  0  0
   14.2894   -4.5000   -0.0000 C   0  0  0  0  0  0  0  0  0  0  0  0
   15.5885   -2.2500   -0.0000 C   0  0  0  0  0  0  0  0  0  0  0  0
   15.5885   -5.2500   -0.0000 C   0  0  0  0  0  0  0  0  0  0  0  0
   12.9904   -5.2500   -0.0000 C   0  0  0  0  0  0  0  0  0  0  0  0
   16.8875   -3.0000   -0.0000 C   0  0  0  0  0  0  0  0  0  0  0  0
   15.5885   -0.7500   -0.0000 C   0  0  0  0  0  0  0  0  0  0  0  0
   16.8875   -4.5000   -0.0000 O   0  0  0  0  0  0  0  0  0  0  0  0
   15.5885   -6.7500   -0.0000 C   0  0  0  0  0  0  0  0  0  0  0  0
   11.6914   -4.5000   -0.0000 O   0  0  0  0  0  0  0  0  0  0  0  0
   12.9904   -6.7500   -0.0000 C   0  0  0  0  0  0  0  0  0  0  0  0
   18.1866   -2.2500   -0.0000 C   0  0  0  0  0  0  0  0  0  0  0  0
   16.8875   -0.0000   -0.0000 C   0  0  0  0  0  0  0  0  0  0  0  0
   14.2894   -0.0000   -0.0000 C   0  0  0  0  0  0  0  0  0  0  0  0
   14.2894   -7.5000   -0.0000 C   0  0  0  0  0  0  0  0  0  0  0  0
   18.1866   -0.7500   -0.0000 C   0  0  0  0  0  0  0  0  0  0  0  0
   16.8875    1.5000   -0.0000 O   0  0  0  0  0  0  0  0  0  0  0  0
   12.9904   -0.7500   -0.0000 C   0  0  0  0  0  0  0  0  0  0  0  0
   14.2894   -9.0000   -0.0000 O   0  0  0  0  0  0  0  0  0  0  0  0
   19.4856    0.0000   -0.0000 O   0  0  0  0  0  0  0  0  0  0  0  0
   11.6914   -0.0000   -0.0000 C   0  0  0  0  0  0  0  0  0  0  0  0
   12.4414    1.2990   -0.0000 O   0  0  0  0  0  0  0  0  0  0  0  0
   10.3923   -0.7500   -0.0000 C   0  0  0  0  0  0  0  0  0  0  0  0
   10.9414    1.2990   -0.0000 C   0  0  0  0  0  0  0  0  0  0  0  0
    9.0933   -0.0000   -0.0000 C   0  0  0  0  0  0  0  0  0  0  0  0
    7.7942   -0.7500   -0.0000 C   0  0  0  0  0  0  0  0  0  0  0  0
    6.4952   -0.0000   -0.0000 C   0  0  0  0  0  0  0  0  0  0  0  0
    5.1962   -0.7500   -0.0000 C   0  0  0  0  0  0  0  0  0  0  0  0
    6.4952    1.5000   -0.0000 C   0  0  0  0  0  0  0  0  0  0  0  0
    3.8971   -0.0000   -0.0000 C   0  0  0  0  0  0  0  0  0  0  0  0
    2.5981   -0.7500   -0.0000 C   0  0  0  0  0  0  0  0  0  0  0  0
    1.2990   -0.0000   -0.0000 C   0  0  0  0  0  0  0  0  0  0  0  0
    1.2990    1.5000   -0.0000 C   0  0  0  0  0  0  0  0  0  0  0  0
    0.0000   -0.7500   -0.0000 C   0  0  0  0  0  0  0  0  0  0  0  0
  1  2  2  0  0  0  0
  2  3  1  0  0  0  0
  2  4  1  0  0  0  0
  3  5  2  0  0  0  0
  3  6  1  0  0  0  0
  4  7  2  0  0  0  0
  4  8  1  0  0  0  0
  5  9  1  0  0  0  0
  5 10  1  0  0  0  0
  6 11  1  0  0  0  0
  6 12  2  0  0  0  0
  7 13  1  0  0  0  0
  8 14  2  0  0  0  0
  8 15  1  0  0  0  0
 10 16  2  0  0  0  0
 13 17  2  0  0  0  0
 14 18  1  0  0  0  0
 15 19  1  0  0  0  0
 16 20  1  0  0  0  0
 17 21  1  0  0  0  0
 19 22  1  0  0  0  0
 22 23  1  6  0  0  0
 22 24  1  0  0  0  0
 22 25  1  0  0  0  0
 24 26  1  0  0  0  0
 26 27  1  0  0  0  0
 27 28  2  0  0  0  0
 28 29  1  0  0  0  0
 28 30  1  0  0  0  0
 29 31  1  0  0  0  0
 31 32  1  0  0  0  0
 32 33  2  0  0  0  0
 33 34  1  0  0  0  0
 33 35  1  0  0  0  0
  7  9  1  0  0  0  0
 12 16  1  0  0  0  0
 14 17  1  0  0  0  0
M  END
>  <S/N>
612

>  <Compound ID>
C_629

>  <PubChem CID>
155565849

>  <Isomeric SMILES>
CC(=CCC/C(=C/CCC(C)(CCC1=C(C(=CC2=C1C(=O)C3=C(C=C(C=C3O2)O)O)O)O)O)/C)C

>  <IC50 (�M)>
25.4

>  <pIC50>
4.6

$$$$
C_630
Actelion Java MolfileCreator 1.0

 35 38  0  0  0  0  0  0  0  0999 V2000
   10.1904   -0.5093   -0.0000 Cl  0  0  0  0  0  0  0  0  0  0  0  0
   10.7782   -1.3183   -0.0000 C   0  0  0  0  0  0  0  0  0  0  0  0
   10.3714   -2.2319   -0.0000 C   0  0  0  0  0  0  0  0  0  0  0  0
   11.7727   -1.2138   -0.0000 C   0  0  0  0  0  0  0  0  0  0  0  0
    9.3769   -2.3364   -0.0000 C   0  0  0  0  0  0  0  0  0  0  0  0
   10.9592   -3.0409   -0.0000 C   0  0  0  0  0  0  0  0  0  0  0  0
   12.3605   -2.0228   -0.0000 C   0  0  0  0  0  0  0  0  0  0  0  0
    8.7078   -1.5933   -0.0000 O   0  0  0  0  0  0  0  0  0  0  0  0
    8.8769   -3.2024   -0.0000 N   0  0  0  0  0  0  0  0  0  0  0  0
   11.9537   -2.9364   -0.0000 C   0  0  0  0  0  0  0  0  0  0  0  0
    7.7942   -2.0000   -0.0000 C   0  0  0  0  0  0  0  0  0  0  0  0
    7.8988   -2.9945   -0.0000 N   0  0  0  0  0  0  0  0  0  0  0  0
    6.9282   -1.5000   -0.0000 C   0  0  0  0  0  0  0  0  0  0  0  0
    6.9282   -0.5000   -0.0000 C   0  0  0  0  0  0  0  0  0  0  0  0
    6.0622   -2.0000   -0.0000 C   0  0  0  0  0  0  0  0  0  0  0  0
    6.0622   -0.0000   -0.0000 C   0  0  0  0  0  0  0  0  0  0  0  0
    5.1962   -1.5000   -0.0000 C   0  0  0  0  0  0  0  0  0  0  0  0
    5.1962   -0.5000   -0.0000 C   0  0  0  0  0  0  0  0  0  0  0  0
    4.3301   -0.0000   -0.0000 C   0  0  0  0  0  0  0  0  0  0  0  0
    4.3301    1.0000   -0.0000 O   0  0  0  0  0  0  0  0  0  0  0  0
    3.4641   -0.5000   -0.0000 N   0  0  0  0  0  0  0  0  0  0  0  0
    2.5981   -0.0000   -0.0000 N   0  0  0  0  0  0  0  0  0  0  0  0
    1.7321   -0.5000   -0.0000 C   0  0  0  0  0  0  0  0  0  0  0  0
    1.7321   -1.5000   -0.0000 S   0  0  0  0  0  0  0  0  0  0  0  0
    0.8660   -0.0000   -0.0000 N   0  0  0  0  0  0  0  0  0  0  0  0
    0.0000   -0.5000   -0.0000 C   0  0  0  0  0  0  0  0  0  0  0  0
   -0.8660    0.0000   -0.0000 C   0  0  0  0  0  0  0  0  0  0  0  0
   -0.0000   -1.5000   -0.0000 C   0  0  0  0  0  0  0  0  0  0  0  0
   -1.7321   -0.5000   -0.0000 C   0  0  0  0  0  0  0  0  0  0  0  0
   -0.8660   -2.0000   -0.0000 C   0  0  0  0  0  0  0  0  0  0  0  0
   -1.7321   -1.5000   -0.0000 C   0  0  0  0  0  0  0  0  0  0  0  0
   -2.5981   -2.0000   -0.0000 C   0  0  0  0  0  0  0  0  0  0  0  0
   -2.0981   -2.8660   -0.0000 F   0  0  0  0  0  0  0  0  0  0  0  0
   -3.4641   -2.5000   -0.0000 F   0  0  0  0  0  0  0  0  0  0  0  0
   -3.0981   -1.1340   -0.0000 F   0  0  0  0  0  0  0  0  0  0  0  0
  1  2  1  0  0  0  0
  2  3  2  0  0  0  0
  2  4  1  0  0  0  0
  3  5  1  0  0  0  0
  3  6  1  0  0  0  0
  4  7  2  0  0  0  0
  5  8  1  0  0  0  0
  5  9  2  0  0  0  0
  6 10  2  0  0  0  0
  8 11  1  0  0  0  0
  9 12  1  0  0  0  0
 11 13  1  0  0  0  0
 13 14  2  0  0  0  0
 13 15  1  0  0  0  0
 14 16  1  0  0  0  0
 15 17  2  0  0  0  0
 16 18  2  0  0  0  0
 18 19  1  0  0  0  0
 19 20  2  0  0  0  0
 19 21  1  0  0  0  0
 21 22  1  0  0  0  0
 22 23  1  0  0  0  0
 23 24  2  0  0  0  0
 23 25  1  0  0  0  0
 25 26  1  0  0  0  0
 26 27  2  0  0  0  0
 26 28  1  0  0  0  0
 27 29  1  0  0  0  0
 28 30  2  0  0  0  0
 29 31  2  0  0  0  0
 31 32  1  0  0  0  0
 32 33  1  0  0  0  0
 32 34  1  0  0  0  0
 32 35  1  0  0  0  0
  7 10  1  0  0  0  0
 11 12  2  0  0  0  0
 17 18  1  0  0  0  0
 30 31  1  0  0  0  0
M  END
>  <S/N>
613

>  <Compound ID>
C_630

>  <PubChem CID>
155565952

>  <Isomeric SMILES>
C1=CC=C(C(=C1)C2=NN=C(O2)C3=CC=C(C=C3)C(=O)NNC(=S)NC4=CC=C(C=C4)C(F)(F)F)Cl

>  <IC50 (�M)>
0.6

>  <pIC50>
6.22

$$$$
C_631
Actelion Java MolfileCreator 1.0

 32 35  0  0  0  0  0  0  0  0999 V2000
   10.1904   -0.5093   -0.0000 Cl  0  0  0  0  0  0  0  0  0  0  0  0
   10.7782   -1.3183   -0.0000 C   0  0  0  0  0  0  0  0  0  0  0  0
   10.3714   -2.2319   -0.0000 C   0  0  0  0  0  0  0  0  0  0  0  0
   11.7727   -1.2138   -0.0000 C   0  0  0  0  0  0  0  0  0  0  0  0
    9.3769   -2.3364   -0.0000 C   0  0  0  0  0  0  0  0  0  0  0  0
   10.9592   -3.0409   -0.0000 C   0  0  0  0  0  0  0  0  0  0  0  0
   12.3605   -2.0228   -0.0000 C   0  0  0  0  0  0  0  0  0  0  0  0
    8.7078   -1.5933   -0.0000 O   0  0  0  0  0  0  0  0  0  0  0  0
    8.8769   -3.2024   -0.0000 N   0  0  0  0  0  0  0  0  0  0  0  0
   11.9537   -2.9364   -0.0000 C   0  0  0  0  0  0  0  0  0  0  0  0
    7.7942   -2.0000   -0.0000 C   0  0  0  0  0  0  0  0  0  0  0  0
    7.8988   -2.9945   -0.0000 N   0  0  0  0  0  0  0  0  0  0  0  0
    6.9282   -1.5000   -0.0000 C   0  0  0  0  0  0  0  0  0  0  0  0
    6.9282   -0.5000   -0.0000 C   0  0  0  0  0  0  0  0  0  0  0  0
    6.0622   -2.0000   -0.0000 C   0  0  0  0  0  0  0  0  0  0  0  0
    6.0622   -0.0000   -0.0000 C   0  0  0  0  0  0  0  0  0  0  0  0
    5.1962   -1.5000   -0.0000 C   0  0  0  0  0  0  0  0  0  0  0  0
    5.1962   -0.5000   -0.0000 C   0  0  0  0  0  0  0  0  0  0  0  0
    4.3301   -0.0000   -0.0000 C   0  0  0  0  0  0  0  0  0  0  0  0
    4.3301    1.0000   -0.0000 O   0  0  0  0  0  0  0  0  0  0  0  0
    3.4641   -0.5000   -0.0000 N   0  0  0  0  0  0  0  0  0  0  0  0
    2.5981   -0.0000   -0.0000 N   0  0  0  0  0  0  0  0  0  0  0  0
    1.7321   -0.5000   -0.0000 C   0  0  0  0  0  0  0  0  0  0  0  0
    1.7321   -1.5000   -0.0000 S   0  0  0  0  0  0  0  0  0  0  0  0
    0.8660   -0.0000   -0.0000 N   0  0  0  0  0  0  0  0  0  0  0  0
    0.0000   -0.5000   -0.0000 C   0  0  0  0  0  0  0  0  0  0  0  0
   -0.8660    0.0000   -0.0000 C   0  0  0  0  0  0  0  0  0  0  0  0
   -0.0000   -1.5000   -0.0000 C   0  0  0  0  0  0  0  0  0  0  0  0
   -1.7321   -0.5000   -0.0000 C   0  0  0  0  0  0  0  0  0  0  0  0
   -0.8660   -2.0000   -0.0000 C   0  0  0  0  0  0  0  0  0  0  0  0
   -1.7321   -1.5000   -0.0000 C   0  0  0  0  0  0  0  0  0  0  0  0
   -2.5981   -2.0000   -0.0000 F   0  0  0  0  0  0  0  0  0  0  0  0
  1  2  1  0  0  0  0
  2  3  2  0  0  0  0
  2  4  1  0  0  0  0
  3  5  1  0  0  0  0
  3  6  1  0  0  0  0
  4  7  2  0  0  0  0
  5  8  1  0  0  0  0
  5  9  2  0  0  0  0
  6 10  2  0  0  0  0
  8 11  1  0  0  0  0
  9 12  1  0  0  0  0
 11 13  1  0  0  0  0
 13 14  2  0  0  0  0
 13 15  1  0  0  0  0
 14 16  1  0  0  0  0
 15 17  2  0  0  0  0
 16 18  2  0  0  0  0
 18 19  1  0  0  0  0
 19 20  2  0  0  0  0
 19 21  1  0  0  0  0
 21 22  1  0  0  0  0
 22 23  1  0  0  0  0
 23 24  2  0  0  0  0
 23 25  1  0  0  0  0
 25 26  1  0  0  0  0
 26 27  2  0  0  0  0
 26 28  1  0  0  0  0
 27 29  1  0  0  0  0
 28 30  2  0  0  0  0
 29 31  2  0  0  0  0
 31 32  1  0  0  0  0
  7 10  1  0  0  0  0
 11 12  2  0  0  0  0
 17 18  1  0  0  0  0
 30 31  1  0  0  0  0
M  END
>  <S/N>
614

>  <Compound ID>
C_631

>  <PubChem CID>
155566243

>  <Isomeric SMILES>
C1=CC=C(C(=C1)C2=NN=C(O2)C3=CC=C(C=C3)C(=O)NNC(=S)NC4=CC=C(C=C4)F)Cl

>  <IC50 (�M)>
0.4

>  <pIC50>
6.4

$$$$
C_632
Actelion Java MolfileCreator 1.0

 44 51  0  0  0  0  0  0  0  0999 V2000
    5.2437   -1.5933   -0.0000 O   0  0  0  0  0  0  0  0  0  0  0  0
    4.3301   -2.0000   -0.0000 C   0  0  0  0  0  0  0  0  0  0  0  0
    5.9128   -2.3364   -0.0000 C   0  0  0  0  0  0  0  0  0  0  0  0
    4.4347   -2.9945   -0.0000 N   0  0  0  0  0  0  0  0  0  0  0  0
    3.4641   -1.5000   -0.0000 C   0  0  0  0  0  0  0  0  0  0  0  0
    5.4128   -3.2024   -0.0000 N   0  0  0  0  0  0  0  0  0  0  0  0
    6.9073   -2.2319   -0.0000 C   0  0  0  0  0  0  0  0  0  0  0  0
    3.4641   -0.5000   -0.0000 C   0  0  0  0  0  0  0  0  0  0  0  0
    2.5981   -2.0000   -0.0000 C   0  0  0  0  0  0  0  0  0  0  0  0
    7.5765   -2.9750   -0.0000 C   0  0  0  0  0  0  0  0  0  0  0  0
    7.4073   -1.3659   -0.0000 C   0  0  0  0  0  0  0  0  0  0  0  0
    2.5981    0.0000   -0.0000 C   0  0  0  0  0  0  0  0  0  0  0  0
    1.7321   -1.5000   -0.0000 C   0  0  0  0  0  0  0  0  0  0  0  0
    8.4900   -2.5683   -0.0000 C   0  0  0  0  0  0  0  0  0  0  0  0
    7.4719   -3.9695   -0.0000 C   0  0  0  0  0  0  0  0  0  0  0  0
    8.3855   -1.5738   -0.0000 N   0  0  0  0  0  0  0  0  0  0  0  0
    7.0006   -0.4523   -0.0000 C   0  0  0  0  0  0  0  0  0  0  0  0
    1.7321   -0.5000   -0.0000 C   0  0  0  0  0  0  0  0  0  0  0  0
    9.2990   -3.1561   -0.0000 C   0  0  0  0  0  0  0  0  0  0  0  0
    8.2809   -4.5573   -0.0000 C   0  0  0  0  0  0  0  0  0  0  0  0
    0.8660   -0.0000   -0.0000 C   0  0  0  0  0  0  0  0  0  0  0  0
    9.1945   -4.1506   -0.0000 C   0  0  0  0  0  0  0  0  0  0  0  0
    0.8660    1.0000   -0.0000 C   0  0  0  0  0  0  0  0  0  0  0  0
    0.0000   -0.5000   -0.0000 C   0  0  0  0  0  0  0  0  0  0  0  0
    0.0570    1.5878   -0.0000 C   0  0  0  0  0  0  0  0  0  0  0  0
    1.6750    1.5878   -0.0000 C   0  0  0  0  0  0  0  0  0  0  0  0
   -0.9135   -0.0933   -0.0000 C   0  0  0  0  0  0  0  0  0  0  0  0
   -0.1045   -1.4945   -0.0000 C   0  0  0  0  0  0  0  0  0  0  0  0
    0.3660    2.5388   -0.0000 C   0  0  0  0  0  0  0  0  0  0  0  0
   -0.9211    1.3799   -0.0000 C   0  0  0  0  0  0  0  0  0  0  0  0
    1.3660    2.5388   -0.0000 N   0  0  0  0  0  0  0  0  0  0  0  0
    2.6261    1.2788   -0.0000 C   0  0  0  0  0  0  0  0  0  0  0  0
   -1.5827   -0.8364   -0.0000 C   0  0  0  0  0  0  0  0  0  0  0  0
   -1.2226    0.8578   -0.0000 C   0  0  0  0  0  0  0  0  0  0  0  0
   -1.0827   -1.7024   -0.0000 N   0  0  0  0  0  0  0  0  0  0  0  0
    0.6386   -2.1637   -0.0000 C   0  0  0  0  0  0  0  0  0  0  0  0
   -0.3031    3.2820   -0.0000 C   0  0  0  0  0  0  0  0  0  0  0  0
   -1.5903    2.1230   -0.0000 C   0  0  0  0  0  0  0  0  0  0  0  0
    1.9538    3.3479   -0.0000 C   0  0  0  0  0  0  0  0  0  0  0  0
   -2.5608   -0.6285   -0.0000 C   0  0  0  0  0  0  0  0  0  0  0  0
   -2.2007    1.0657   -0.0000 C   0  0  0  0  0  0  0  0  0  0  0  0
   -1.4894   -2.6160   -0.0000 C   0  0  0  0  0  0  0  0  0  0  0  0
   -1.2813    3.0741   -0.0000 C   0  0  0  0  0  0  0  0  0  0  0  0
   -2.8698    0.3226   -0.0000 C   0  0  0  0  0  0  0  0  0  0  0  0
  1  2  1  0  0  0  0
  1  3  1  0  0  0  0
  2  4  2  0  0  0  0
  2  5  1  0  0  0  0
  3  6  2  0  0  0  0
  3  7  1  0  0  0  0
  5  8  2  0  0  0  0
  5  9  1  0  0  0  0
  7 10  1  0  0  0  0
  7 11  2  0  0  0  0
  8 12  1  0  0  0  0
  9 13  2  0  0  0  0
 10 14  2  0  0  0  0
 10 15  1  0  0  0  0
 11 16  1  0  0  0  0
 11 17  1  0  0  0  0
 12 18  2  0  0  0  0
 14 19  1  0  0  0  0
 15 20  2  0  0  0  0
 18 21  1  0  0  0  0
 19 22  2  0  0  0  0
 21 23  1  0  0  0  0
 21 24  1  0  0  0  0
 23 25  1  0  0  0  0
 23 26  2  0  0  0  0
 24 27  1  0  0  0  0
 24 28  2  0  0  0  0
 25 29  2  0  0  0  0
 25 30  1  0  0  0  0
 26 31  1  0  0  0  0
 26 32  1  0  0  0  0
 27 33  2  0  0  0  0
 27 34  1  0  0  0  0
 28 35  1  0  0  0  0
 28 36  1  0  0  0  0
 29 37  1  0  0  0  0
 30 38  2  0  0  0  0
 31 39  1  0  0  0  0
 33 40  1  0  0  0  0
 34 41  2  0  0  0  0
 35 42  1  0  0  0  0
 37 43  2  0  0  0  0
 40 44  2  0  0  0  0
  4  6  1  0  0  0  0
 13 18  1  0  0  0  0
 14 16  1  0  0  0  0
 20 22  1  0  0  0  0
 29 31  1  0  0  0  0
 33 35  1  0  0  0  0
 38 43  1  0  0  0  0
 41 44  1  0  0  0  0
M  END
>  <S/N>
615

>  <Compound ID>
C_632

>  <PubChem CID>
155566721

>  <Isomeric SMILES>
CC1=C(C2=CC=CC=C2N1)C3=NN=C(O3)C4=CC=C(C=C4)C(C5=C(N(C6=CC=CC=C65)C)C)C7=C(N(C8=CC=CC=C87)C)C

>  <IC50 (�M)>
20

>  <pIC50>
4.7

$$$$
C_633
Actelion Java MolfileCreator 1.0

 25 28  0  0  0  0  0  0  0  0999 V2000
    5.6808    2.9345   -0.0000 Cl  0  0  0  0  0  0  0  0  0  0  0  0
    5.1808    2.0685   -0.0000 C   0  0  0  0  0  0  0  0  0  0  0  0
    4.1808    2.0685   -0.0000 C   0  0  0  0  0  0  0  0  0  0  0  0
    5.6808    1.2024   -0.0000 C   0  0  0  0  0  0  0  0  0  0  0  0
    3.6808    1.2024   -0.0000 C   0  0  0  0  0  0  0  0  0  0  0  0
    5.1808    0.3364   -0.0000 C   0  0  0  0  0  0  0  0  0  0  0  0
    2.7026    0.9945   -0.0000 N   0  0  0  0  0  0  0  0  0  0  0  0
    4.1808    0.3364   -0.0000 C   0  0  0  0  0  0  0  0  0  0  0  0
    2.5981   -0.0000   -0.0000 C   0  0  0  0  0  0  0  0  0  0  0  0
    3.5116   -0.4067   -0.0000 S   0  0  0  0  0  0  0  0  0  0  0  0
    1.7321   -0.5000   -0.0000 S   0  0  0  0  0  0  0  0  0  0  0  0
    0.8660   -0.0000   -0.0000 C   0  0  0  0  0  0  0  0  0  0  0  0
    0.0000   -0.5000   -0.0000 C   0  0  0  0  0  0  0  0  0  0  0  0
   -0.9135   -0.0933   -0.0000 N   0  0  0  0  0  0  0  0  0  0  0  0
   -0.1045   -1.4945   -0.0000 C   0  0  0  0  0  0  0  0  0  0  0  0
   -1.5827   -0.8364   -0.0000 N   0  0  0  0  0  0  0  0  0  0  0  0
   -1.0827   -1.7024   -0.0000 N   0  0  0  0  0  0  0  0  0  0  0  0
   -1.4894   -2.6160   -0.0000 C   0  0  0  0  0  0  0  0  0  0  0  0
   -0.9016   -3.4250   -0.0000 C   0  0  0  0  0  0  0  0  0  0  0  0
   -1.3084   -4.3385   -0.0000 C   0  0  0  0  0  0  0  0  0  0  0  0
    0.0929   -3.3205   -0.0000 C   0  0  0  0  0  0  0  0  0  0  0  0
   -0.7206   -5.1476   -0.0000 C   0  0  0  0  0  0  0  0  0  0  0  0
    0.6807   -4.1295   -0.0000 C   0  0  0  0  0  0  0  0  0  0  0  0
    0.2739   -5.0430   -0.0000 C   0  0  0  0  0  0  0  0  0  0  0  0
    0.8617   -5.8520   -0.0000 F   0  0  0  0  0  0  0  0  0  0  0  0
  1  2  1  0  0  0  0
  2  3  2  0  0  0  0
  2  4  1  0  0  0  0
  3  5  1  0  0  0  0
  4  6  2  0  0  0  0
  5  7  1  0  0  0  0
  5  8  2  0  0  0  0
  7  9  2  0  0  0  0
  8 10  1  0  0  0  0
  9 11  1  0  0  0  0
 11 12  1  0  0  0  0
 12 13  1  0  0  0  0
 13 14  1  0  0  0  0
 13 15  2  0  0  0  0
 14 16  2  0  0  0  0
 15 17  1  0  0  0  0
 17 18  1  0  0  0  0
 18 19  1  0  0  0  0
 19 20  2  0  0  0  0
 19 21  1  0  0  0  0
 20 22  1  0  0  0  0
 21 23  2  0  0  0  0
 22 24  2  0  0  0  0
 24 25  1  0  0  0  0
  6  8  1  0  0  0  0
  9 10  1  0  0  0  0
 16 17  1  0  0  0  0
 23 24  1  0  0  0  0
M  END
>  <S/N>
616

>  <Compound ID>
C_633

>  <PubChem CID>
155566820

>  <Isomeric SMILES>
C1=CC(=CC=C1CN2C=C(N=N2)CSC3=NC4=C(S3)C=CC(=C4)Cl)F

>  <IC50 (�M)>
20

>  <pIC50>
4.7

$$$$
C_634
Actelion Java MolfileCreator 1.0

 32 35  0  0  0  0  0  0  0  0999 V2000
   10.1904   -0.5093   -0.0000 Cl  0  0  0  0  0  0  0  0  0  0  0  0
   10.7782   -1.3183   -0.0000 C   0  0  0  0  0  0  0  0  0  0  0  0
   10.3714   -2.2319   -0.0000 C   0  0  0  0  0  0  0  0  0  0  0  0
   11.7727   -1.2138   -0.0000 C   0  0  0  0  0  0  0  0  0  0  0  0
    9.3769   -2.3364   -0.0000 C   0  0  0  0  0  0  0  0  0  0  0  0
   10.9592   -3.0409   -0.0000 C   0  0  0  0  0  0  0  0  0  0  0  0
   12.3605   -2.0228   -0.0000 C   0  0  0  0  0  0  0  0  0  0  0  0
    8.7078   -1.5933   -0.0000 O   0  0  0  0  0  0  0  0  0  0  0  0
    8.8769   -3.2024   -0.0000 N   0  0  0  0  0  0  0  0  0  0  0  0
   11.9537   -2.9364   -0.0000 C   0  0  0  0  0  0  0  0  0  0  0  0
    7.7942   -2.0000   -0.0000 C   0  0  0  0  0  0  0  0  0  0  0  0
    7.8988   -2.9945   -0.0000 N   0  0  0  0  0  0  0  0  0  0  0  0
    6.9282   -1.5000   -0.0000 C   0  0  0  0  0  0  0  0  0  0  0  0
    6.9282   -0.5000   -0.0000 C   0  0  0  0  0  0  0  0  0  0  0  0
    6.0622   -2.0000   -0.0000 C   0  0  0  0  0  0  0  0  0  0  0  0
    6.0622   -0.0000   -0.0000 C   0  0  0  0  0  0  0  0  0  0  0  0
    5.1962   -1.5000   -0.0000 C   0  0  0  0  0  0  0  0  0  0  0  0
    5.1962   -0.5000   -0.0000 C   0  0  0  0  0  0  0  0  0  0  0  0
    4.3301   -0.0000   -0.0000 C   0  0  0  0  0  0  0  0  0  0  0  0
    4.3301    1.0000   -0.0000 O   0  0  0  0  0  0  0  0  0  0  0  0
    3.4641   -0.5000   -0.0000 N   0  0  0  0  0  0  0  0  0  0  0  0
    2.5981   -0.0000   -0.0000 N   0  0  0  0  0  0  0  0  0  0  0  0
    1.7321   -0.5000   -0.0000 C   0  0  0  0  0  0  0  0  0  0  0  0
    1.7321   -1.5000   -0.0000 S   0  0  0  0  0  0  0  0  0  0  0  0
    0.8660   -0.0000   -0.0000 N   0  0  0  0  0  0  0  0  0  0  0  0
    0.0000   -0.5000   -0.0000 C   0  0  0  0  0  0  0  0  0  0  0  0
   -0.8660    0.0000   -0.0000 C   0  0  0  0  0  0  0  0  0  0  0  0
   -0.0000   -1.5000   -0.0000 C   0  0  0  0  0  0  0  0  0  0  0  0
   -0.8660    1.0000   -0.0000 F   0  0  0  0  0  0  0  0  0  0  0  0
   -1.7321   -0.5000   -0.0000 C   0  0  0  0  0  0  0  0  0  0  0  0
   -0.8660   -2.0000   -0.0000 C   0  0  0  0  0  0  0  0  0  0  0  0
   -1.7321   -1.5000   -0.0000 C   0  0  0  0  0  0  0  0  0  0  0  0
  1  2  1  0  0  0  0
  2  3  2  0  0  0  0
  2  4  1  0  0  0  0
  3  5  1  0  0  0  0
  3  6  1  0  0  0  0
  4  7  2  0  0  0  0
  5  8  1  0  0  0  0
  5  9  2  0  0  0  0
  6 10  2  0  0  0  0
  8 11  1  0  0  0  0
  9 12  1  0  0  0  0
 11 13  1  0  0  0  0
 13 14  2  0  0  0  0
 13 15  1  0  0  0  0
 14 16  1  0  0  0  0
 15 17  2  0  0  0  0
 16 18  2  0  0  0  0
 18 19  1  0  0  0  0
 19 20  2  0  0  0  0
 19 21  1  0  0  0  0
 21 22  1  0  0  0  0
 22 23  1  0  0  0  0
 23 24  2  0  0  0  0
 23 25  1  0  0  0  0
 25 26  1  0  0  0  0
 26 27  2  0  0  0  0
 26 28  1  0  0  0  0
 27 29  1  0  0  0  0
 27 30  1  0  0  0  0
 28 31  2  0  0  0  0
 30 32  2  0  0  0  0
  7 10  1  0  0  0  0
 11 12  2  0  0  0  0
 17 18  1  0  0  0  0
 31 32  1  0  0  0  0
M  END
>  <S/N>
617

>  <Compound ID>
C_634

>  <PubChem CID>
155566948

>  <Isomeric SMILES>
C1=CC=C(C(=C1)C2=NN=C(O2)C3=CC=C(C=C3)C(=O)NNC(=S)NC4=CC=CC=C4F)Cl

>  <IC50 (�M)>
0.4

>  <pIC50>
6.4

$$$$
C_635
Actelion Java MolfileCreator 1.0

 28 30  0  0  1  0  0  0  0  0999 V2000
    6.0622   -2.0000   -0.0000 Br  0  0  0  0  0  0  0  0  0  0  0  0
    5.1962   -1.5000   -0.0000 C   0  0  0  0  0  0  0  0  0  0  0  0
    5.1962   -0.5000   -0.0000 C   0  0  0  0  0  0  0  0  0  0  0  0
    4.3301   -2.0000   -0.0000 C   0  0  0  0  0  0  0  0  0  0  0  0
    4.3301    0.0000   -0.0000 C   0  0  0  0  0  0  0  0  0  0  0  0
    3.4641   -1.5000   -0.0000 C   0  0  0  0  0  0  0  0  0  0  0  0
    4.3301    1.0000   -0.0000 O   0  0  0  0  0  0  0  0  0  0  0  0
    3.4641   -0.5000   -0.0000 C   0  0  0  0  0  0  0  0  0  0  0  0
    3.4641    1.5000   -0.0000 C   0  0  0  0  0  0  0  0  0  0  0  0
    2.5981   -0.0000   -0.0000 O   0  0  0  0  0  0  0  0  0  0  0  0
    1.7321   -0.5000   -0.0000 C   0  0  0  0  0  0  0  0  0  0  0  0
    0.8660   -0.0000   -0.0000 C   0  0  0  0  0  0  0  0  0  0  0  0
    1.7321   -1.5000   -0.0000 C   0  0  0  0  0  0  0  0  0  0  0  0
    0.0000   -0.5000   -0.0000 N   0  0  0  0  0  0  0  0  0  0  0  0
   -0.9135   -0.0933   -0.0000 N   0  0  0  0  0  0  0  0  0  0  0  0
   -0.1045   -1.4945   -0.0000 C   0  0  0  0  0  0  0  0  0  0  0  0
   -1.5827   -0.8364   -0.0000 N   0  0  0  0  0  0  0  0  0  0  0  0
   -1.0827   -1.7024   -0.0000 C   0  0  0  0  0  0  0  0  0  0  0  0
   -1.4894   -2.6160   -0.0000 C   0  0  0  0  0  0  0  0  0  0  0  0
   -2.4839   -2.7205   -0.0000 C   0  0  0  0  0  0  0  0  0  0  0  0
   -0.9016   -3.4250   -0.0000 C   0  0  0  0  0  0  0  0  0  0  0  0
   -2.8907   -3.6341   -0.0000 C   0  0  0  0  0  0  0  0  0  0  0  0
   -1.3084   -4.3385   -0.0000 C   0  0  0  0  0  0  0  0  0  0  0  0
   -2.3029   -4.4431   -0.0000 C   0  0  0  0  0  0  0  0  0  0  0  0
   -2.7096   -5.3566   -0.0000 C   0  0  0  0  0  0  0  0  0  0  0  0
   -1.7961   -5.7634   -0.0000 F   0  0  0  0  0  0  0  0  0  0  0  0
   -3.1164   -6.2702   -0.0000 F   0  0  0  0  0  0  0  0  0  0  0  0
   -3.6232   -4.9499   -0.0000 F   0  0  0  0  0  0  0  0  0  0  0  0
  1  2  1  0  0  0  0
  2  3  2  0  0  0  0
  2  4  1  0  0  0  0
  3  5  1  0  0  0  0
  4  6  2  0  0  0  0
  5  7  1  0  0  0  0
  5  8  2  0  0  0  0
  7  9  1  0  0  0  0
  8 10  1  0  0  0  0
 10 11  1  0  0  0  0
 11 12  1  0  0  0  0
 11 13  1  6  0  0  0
 12 14  1  0  0  0  0
 14 15  1  0  0  0  0
 14 16  1  0  0  0  0
 15 17  2  0  0  0  0
 16 18  2  0  0  0  0
 18 19  1  0  0  0  0
 19 20  2  0  0  0  0
 19 21  1  0  0  0  0
 20 22  1  0  0  0  0
 21 23  2  0  0  0  0
 22 24  2  0  0  0  0
 24 25  1  0  0  0  0
 25 26  1  0  0  0  0
 25 27  1  0  0  0  0
 25 28  1  0  0  0  0
  6  8  1  0  0  0  0
 17 18  1  0  0  0  0
 23 24  1  0  0  0  0
M  END
>  <S/N>
618

>  <Compound ID>
C_635

>  <PubChem CID>
155567023

>  <Isomeric SMILES>
C[C@H](CN1C=C(N=N1)C2=CC=C(C=C2)C(F)(F)F)OC3=C(C=C(C=C3)Br)OC

>  <IC50 (�M)>
14

>  <pIC50>
4.85

$$$$
C_636
Actelion Java MolfileCreator 1.0

 23 25  0  0  0  0  0  0  0  0999 V2000
    5.1962   -1.5000   -0.0000 O   0  0  0  0  0  0  0  0  0  0  0  0
    5.1962   -0.5000   -0.0000 C   0  0  0  0  0  0  0  0  0  0  0  0
    6.0622   -0.0000   -0.0000 O   0  0  0  0  0  0  0  0  0  0  0  0
    4.3301   -0.0000   -0.0000 C   0  0  0  0  0  0  0  0  0  0  0  0
    6.0622    1.0000   -0.0000 C   0  0  0  0  0  0  0  0  0  0  0  0
    3.4641   -0.5000   -0.0000 C   0  0  0  0  0  0  0  0  0  0  0  0
    4.3301    1.0000   -0.0000 C   0  0  0  0  0  0  0  0  0  0  0  0
    5.1962    1.5000   -0.0000 C   0  0  0  0  0  0  0  0  0  0  0  0
    6.9282    1.5000   -0.0000 C   0  0  0  0  0  0  0  0  0  0  0  0
    3.4641   -1.5000   -0.0000 O   0  0  0  0  0  0  0  0  0  0  0  0
    2.5981   -0.0000   -0.0000 N   0  0  0  0  0  0  0  0  0  0  0  0
    5.1962    2.5000   -0.0000 C   0  0  0  0  0  0  0  0  0  0  0  0
    6.9282    2.5000   -0.0000 C   0  0  0  0  0  0  0  0  0  0  0  0
    1.7321   -0.5000   -0.0000 N   0  0  0  0  0  0  0  0  0  0  0  0
    6.0622    3.0000   -0.0000 C   0  0  0  0  0  0  0  0  0  0  0  0
    0.8660   -0.0000   -0.0000 C   0  0  0  0  0  0  0  0  0  0  0  0
    0.0000   -0.5000   -0.0000 C   0  0  0  0  0  0  0  0  0  0  0  0
   -0.8660    0.0000   -0.0000 C   0  0  0  0  0  0  0  0  0  0  0  0
   -0.0000   -1.5000   -0.0000 C   0  0  0  0  0  0  0  0  0  0  0  0
   -1.7321   -0.5000   -0.0000 C   0  0  0  0  0  0  0  0  0  0  0  0
   -0.8660   -2.0000   -0.0000 C   0  0  0  0  0  0  0  0  0  0  0  0
   -1.7321   -1.5000   -0.0000 C   0  0  0  0  0  0  0  0  0  0  0  0
   -2.5981    0.0000   -0.0000 C   0  0  0  0  0  0  0  0  0  0  0  0
  1  2  2  0  0  0  0
  2  3  1  0  0  0  0
  2  4  1  0  0  0  0
  3  5  1  0  0  0  0
  4  6  1  0  0  0  0
  4  7  2  0  0  0  0
  5  8  2  0  0  0  0
  5  9  1  0  0  0  0
  6 10  2  0  0  0  0
  6 11  1  0  0  0  0
  8 12  1  0  0  0  0
  9 13  2  0  0  0  0
 11 14  1  0  0  0  0
 12 15  2  0  0  0  0
 14 16  2  0  0  0  0
 16 17  1  0  0  0  0
 17 18  2  0  0  0  0
 17 19  1  0  0  0  0
 18 20  1  0  0  0  0
 19 21  2  0  0  0  0
 20 22  2  0  0  0  0
 20 23  1  0  0  0  0
  7  8  1  0  0  0  0
 13 15  1  0  0  0  0
 21 22  1  0  0  0  0
M  END
>  <S/N>
619

>  <Compound ID>
C_636

>  <PubChem CID>
155567941

>  <Isomeric SMILES>
CC1=CC(=CC=C1)/C=N/NC(=O)C2=CC3=CC=CC=C3OC2=O

>  <IC50 (�M)>
1.1

>  <pIC50>
5.96

$$$$
C_637
Actelion Java MolfileCreator 1.0

 24 27  0  0  0  0  0  0  0  0999 V2000
   11.3401   -4.3075   -0.0000 Br  0  0  0  0  0  0  0  0  0  0  0  0
   10.3364   -3.1927   -0.0000 C   0  0  0  0  0  0  0  0  0  0  0  0
    8.8692   -3.5046   -0.0000 C   0  0  0  0  0  0  0  0  0  0  0  0
   10.8000   -1.7662   -0.0000 C   0  0  0  0  0  0  0  0  0  0  0  0
    7.8655   -2.3899   -0.0000 C   0  0  0  0  0  0  0  0  0  0  0  0
    8.1192   -4.8037   -0.0000 C   0  0  0  0  0  0  0  0  0  0  0  0
    9.7963   -0.6514   -0.0000 C   0  0  0  0  0  0  0  0  0  0  0  0
    8.3290   -0.9633   -0.0000 N   0  0  0  0  0  0  0  0  0  0  0  0
    6.4952   -3.0000   -0.0000 N   0  0  0  0  0  0  0  0  0  0  0  0
    6.6520   -4.4918   -0.0000 C   0  0  0  0  0  0  0  0  0  0  0  0
    5.1962   -2.2500   -0.0000 C   0  0  0  0  0  0  0  0  0  0  0  0
    5.1962   -0.7500   -0.0000 C   0  0  0  0  0  0  0  0  0  0  0  0
    3.8971   -3.0000   -0.0000 C   0  0  0  0  0  0  0  0  0  0  0  0
    3.8971    0.0000   -0.0000 C   0  0  0  0  0  0  0  0  0  0  0  0
    2.5981   -2.2500   -0.0000 C   0  0  0  0  0  0  0  0  0  0  0  0
    2.5981   -0.7500   -0.0000 C   0  0  0  0  0  0  0  0  0  0  0  0
    1.2990   -0.0000   -0.0000 C   0  0  0  0  0  0  0  0  0  0  0  0
    0.0000   -0.7500   -0.0000 C   0  0  0  0  0  0  0  0  0  0  0  0
   -1.3703   -0.1399   -0.0000 S   0  0  0  0  0  0  0  0  0  0  0  0
   -0.1568   -2.2418   -0.0000 C   0  0  0  0  0  0  0  0  0  0  0  0
   -2.3740   -1.2546   -0.0000 C   0  0  0  0  0  0  0  0  0  0  0  0
    0.9579   -3.2455   -0.0000 O   0  0  0  0  0  0  0  0  0  0  0  0
   -1.6240   -2.5537   -0.0000 N   0  0  0  0  0  0  0  0  0  0  0  0
   -3.8658   -1.0978   -0.0000 O   0  0  0  0  0  0  0  0  0  0  0  0
  1  2  1  0  0  0  0
  2  3  2  0  0  0  0
  2  4  1  0  0  0  0
  3  5  1  0  0  0  0
  3  6  1  0  0  0  0
  4  7  2  0  0  0  0
  5  8  2  0  0  0  0
  5  9  1  0  0  0  0
  6 10  2  0  0  0  0
  9 11  1  0  0  0  0
 11 12  2  0  0  0  0
 11 13  1  0  0  0  0
 12 14  1  0  0  0  0
 13 15  2  0  0  0  0
 14 16  2  0  0  0  0
 16 17  1  0  0  0  0
 17 18  2  0  0  0  0
 18 19  1  0  0  0  0
 18 20  1  0  0  0  0
 19 21  1  0  0  0  0
 20 22  2  0  0  0  0
 20 23  1  0  0  0  0
 21 24  2  0  0  0  0
  7  8  1  0  0  0  0
  9 10  1  0  0  0  0
 15 16  1  0  0  0  0
 21 23  1  0  0  0  0
M  END
>  <S/N>
620

>  <Compound ID>
C_637

>  <PubChem CID>
155568099

>  <Isomeric SMILES>
C1=CC(=CC=C1/C=C/2\C(=O)NC(=O)S2)N3C=CC4=C(C=CN=C43)Br

>  <IC50 (�M)>
0.55

>  <pIC50>
6.26

$$$$
C_638
Actelion Java MolfileCreator 1.0

 40 47  0  0  0  0  0  0  0  0999 V2000
    7.8655   -2.3899   -0.0000 O   0  0  0  0  0  0  0  0  0  0  0  0
    6.4952   -3.0000   -0.0000 C   0  0  0  0  0  0  0  0  0  0  0  0
    8.8692   -3.5046   -0.0000 C   0  0  0  0  0  0  0  0  0  0  0  0
    6.6520   -4.4918   -0.0000 N   0  0  0  0  0  0  0  0  0  0  0  0
    5.1962   -2.2500   -0.0000 C   0  0  0  0  0  0  0  0  0  0  0  0
    8.1192   -4.8037   -0.0000 N   0  0  0  0  0  0  0  0  0  0  0  0
   10.3610   -3.3478   -0.0000 C   0  0  0  0  0  0  0  0  0  0  0  0
    5.1962   -0.7500   -0.0000 C   0  0  0  0  0  0  0  0  0  0  0  0
    3.8971   -3.0000   -0.0000 C   0  0  0  0  0  0  0  0  0  0  0  0
   11.3647   -4.4625   -0.0000 C   0  0  0  0  0  0  0  0  0  0  0  0
   11.1110   -2.0488   -0.0000 C   0  0  0  0  0  0  0  0  0  0  0  0
    3.8971    0.0000   -0.0000 C   0  0  0  0  0  0  0  0  0  0  0  0
    2.5981   -2.2500   -0.0000 C   0  0  0  0  0  0  0  0  0  0  0  0
   12.7350   -3.8524   -0.0000 C   0  0  0  0  0  0  0  0  0  0  0  0
   11.2079   -5.9543   -0.0000 C   0  0  0  0  0  0  0  0  0  0  0  0
   12.5782   -2.3606   -0.0000 N   0  0  0  0  0  0  0  0  0  0  0  0
   10.5009   -0.6785   -0.0000 C   0  0  0  0  0  0  0  0  0  0  0  0
    2.5981   -0.7500   -0.0000 C   0  0  0  0  0  0  0  0  0  0  0  0
   13.9485   -4.7341   -0.0000 C   0  0  0  0  0  0  0  0  0  0  0  0
   12.4214   -6.8360   -0.0000 C   0  0  0  0  0  0  0  0  0  0  0  0
    1.2990   -0.0000   -0.0000 C   0  0  0  0  0  0  0  0  0  0  0  0
   13.7917   -6.2259   -0.0000 C   0  0  0  0  0  0  0  0  0  0  0  0
    1.2990    1.5000   -0.0000 C   0  0  0  0  0  0  0  0  0  0  0  0
    0.0000   -0.7500   -0.0000 C   0  0  0  0  0  0  0  0  0  0  0  0
    2.5126    2.3817   -0.0000 C   0  0  0  0  0  0  0  0  0  0  0  0
    0.0855    2.3817   -0.0000 C   0  0  0  0  0  0  0  0  0  0  0  0
   -1.3703   -0.1399   -0.0000 C   0  0  0  0  0  0  0  0  0  0  0  0
   -0.1568   -2.2418   -0.0000 C   0  0  0  0  0  0  0  0  0  0  0  0
    2.0490    3.8083   -0.0000 C   0  0  0  0  0  0  0  0  0  0  0  0
    3.9798    2.0698   -0.0000 C   0  0  0  0  0  0  0  0  0  0  0  0
    0.5490    3.8083   -0.0000 N   0  0  0  0  0  0  0  0  0  0  0  0
   -2.3740   -1.2546   -0.0000 C   0  0  0  0  0  0  0  0  0  0  0  0
   -1.8338    1.2867   -0.0000 C   0  0  0  0  0  0  0  0  0  0  0  0
   -1.6240   -2.5537   -0.0000 N   0  0  0  0  0  0  0  0  0  0  0  0
    3.0527    4.9230   -0.0000 C   0  0  0  0  0  0  0  0  0  0  0  0
    4.9835    3.1845   -0.0000 C   0  0  0  0  0  0  0  0  0  0  0  0
   -3.8412   -0.9427   -0.0000 C   0  0  0  0  0  0  0  0  0  0  0  0
   -3.3011    1.5986   -0.0000 C   0  0  0  0  0  0  0  0  0  0  0  0
    4.5200    4.6111   -0.0000 C   0  0  0  0  0  0  0  0  0  0  0  0
   -4.3048    0.4838   -0.0000 C   0  0  0  0  0  0  0  0  0  0  0  0
  1  2  1  0  0  0  0
  1  3  1  0  0  0  0
  2  4  2  0  0  0  0
  2  5  1  0  0  0  0
  3  6  2  0  0  0  0
  3  7  1  0  0  0  0
  5  8  2  0  0  0  0
  5  9  1  0  0  0  0
  7 10  1  0  0  0  0
  7 11  2  0  0  0  0
  8 12  1  0  0  0  0
  9 13  2  0  0  0  0
 10 14  2  0  0  0  0
 10 15  1  0  0  0  0
 11 16  1  0  0  0  0
 11 17  1  0  0  0  0
 12 18  2  0  0  0  0
 14 19  1  0  0  0  0
 15 20  2  0  0  0  0
 18 21  1  0  0  0  0
 19 22  2  0  0  0  0
 21 23  1  0  0  0  0
 21 24  1  0  0  0  0
 23 25  1  0  0  0  0
 23 26  2  0  0  0  0
 24 27  1  0  0  0  0
 24 28  2  0  0  0  0
 25 29  2  0  0  0  0
 25 30  1  0  0  0  0
 26 31  1  0  0  0  0
 27 32  2  0  0  0  0
 27 33  1  0  0  0  0
 28 34  1  0  0  0  0
 29 35  1  0  0  0  0
 30 36  2  0  0  0  0
 32 37  1  0  0  0  0
 33 38  2  0  0  0  0
 35 39  2  0  0  0  0
 37 40  2  0  0  0  0
  4  6  1  0  0  0  0
 13 18  1  0  0  0  0
 14 16  1  0  0  0  0
 20 22  1  0  0  0  0
 29 31  1  0  0  0  0
 32 34  1  0  0  0  0
 36 39  1  0  0  0  0
 38 40  1  0  0  0  0
M  END
>  <S/N>
621

>  <Compound ID>
C_638

>  <PubChem CID>
155568175

>  <Isomeric SMILES>
CC1=C(C2=CC=CC=C2N1)C3=NN=C(O3)C4=CC=C(C=C4)C(C5=CNC6=CC=CC=C65)C7=CNC8=CC=CC=C87

>  <IC50 (�M)>
20

>  <pIC50>
4.7

$$$$
C_639
Actelion Java MolfileCreator 1.0

 37 41  0  0  0  0  0  0  0  0999 V2000
    6.5665   -0.1399   -0.0000 S   0  0  0  0  0  0  0  0  0  0  0  0
    5.1962   -0.7500   -0.0000 C   0  0  0  0  0  0  0  0  0  0  0  0
    7.5702   -1.2546   -0.0000 C   0  0  0  0  0  0  0  0  0  0  0  0
    3.8971   -0.0000   -0.0000 N   0  0  0  0  0  0  0  0  0  0  0  0
    5.3529   -2.2418   -0.0000 N   0  0  0  0  0  0  0  0  0  0  0  0
    6.8202   -2.5537   -0.0000 C   0  0  0  0  0  0  0  0  0  0  0  0
    9.0619   -1.0978   -0.0000 C   0  0  0  0  0  0  0  0  0  0  0  0
    3.8971    1.5000   -0.0000 N   0  0  0  0  0  0  0  0  0  0  0  0
    4.2382   -3.2455   -0.0000 C   0  0  0  0  0  0  0  0  0  0  0  0
    7.4303   -3.9240   -0.0000 O   0  0  0  0  0  0  0  0  0  0  0  0
    9.6721    0.2725   -0.0000 C   0  0  0  0  0  0  0  0  0  0  0  0
    2.5981    2.2500   -0.0000 C   0  0  0  0  0  0  0  0  0  0  0  0
    2.8116   -2.7820   -0.0000 C   0  0  0  0  0  0  0  0  0  0  0  0
    4.5501   -4.7127   -0.0000 C   0  0  0  0  0  0  0  0  0  0  0  0
   11.1638    0.4293   -0.0000 C   0  0  0  0  0  0  0  0  0  0  0  0
    8.7904    1.4860   -0.0000 C   0  0  0  0  0  0  0  0  0  0  0  0
    1.2990    1.5000   -0.0000 O   0  0  0  0  0  0  0  0  0  0  0  0
    2.5981    3.7500   -0.0000 C   0  0  0  0  0  0  0  0  0  0  0  0
    1.6969   -3.7856   -0.0000 C   0  0  0  0  0  0  0  0  0  0  0  0
    3.4354   -5.7164   -0.0000 C   0  0  0  0  0  0  0  0  0  0  0  0
   11.7739    1.7996   -0.0000 C   0  0  0  0  0  0  0  0  0  0  0  0
    9.4005    2.8563   -0.0000 C   0  0  0  0  0  0  0  0  0  0  0  0
    1.2990    4.5000   -0.0000 C   0  0  0  0  0  0  0  0  0  0  0  0
    3.8971    4.5000   -0.0000 C   0  0  0  0  0  0  0  0  0  0  0  0
    2.0088   -5.2529   -0.0000 C   0  0  0  0  0  0  0  0  0  0  0  0
    0.2703   -3.3221   -0.0000 C   0  0  0  0  0  0  0  0  0  0  0  0
    3.7472   -7.1836   -0.0000 C   0  0  0  0  0  0  0  0  0  0  0  0
   10.8923    3.0131   -0.0000 C   0  0  0  0  0  0  0  0  0  0  0  0
   -0.0000    3.7500   -0.0000 O   0  0  0  0  0  0  0  0  0  0  0  0
    1.2990    6.0000   -0.0000 O   0  0  0  0  0  0  0  0  0  0  0  0
    3.8971    6.0000   -0.0000 C   0  0  0  0  0  0  0  0  0  0  0  0
   11.5024    4.3835   -0.0000 F   0  0  0  0  0  0  0  0  0  0  0  0
    2.5981    6.7500   -0.0000 C   0  0  0  0  0  0  0  0  0  0  0  0
    5.1962    6.7500   -0.0000 C   0  0  0  0  0  0  0  0  0  0  0  0
    2.5981    8.2500   -0.0000 C   0  0  0  0  0  0  0  0  0  0  0  0
    5.1962    8.2500   -0.0000 C   0  0  0  0  0  0  0  0  0  0  0  0
    3.8971    9.0000   -0.0000 C   0  0  0  0  0  0  0  0  0  0  0  0
  1  2  1  0  0  0  0
  1  3  1  0  0  0  0
  2  4  2  0  0  0  0
  2  5  1  0  0  0  0
  3  6  1  0  0  0  0
  3  7  2  0  0  0  0
  4  8  1  0  0  0  0
  5  9  1  0  0  0  0
  6 10  2  0  0  0  0
  7 11  1  0  0  0  0
  8 12  1  0  0  0  0
  9 13  2  0  0  0  0
  9 14  1  0  0  0  0
 11 15  2  0  0  0  0
 11 16  1  0  0  0  0
 12 17  2  0  0  0  0
 12 18  1  0  0  0  0
 13 19  1  0  0  0  0
 14 20  2  0  0  0  0
 15 21  1  0  0  0  0
 16 22  2  0  0  0  0
 18 23  1  0  0  0  0
 18 24  2  0  0  0  0
 19 25  2  0  0  0  0
 19 26  1  0  0  0  0
 20 27  1  0  0  0  0
 21 28  2  0  0  0  0
 23 29  2  0  0  0  0
 23 30  1  0  0  0  0
 24 31  1  0  0  0  0
 28 32  1  0  0  0  0
 30 33  1  0  0  0  0
 31 34  2  0  0  0  0
 33 35  2  0  0  0  0
 34 36  1  0  0  0  0
 35 37  1  0  0  0  0
  5  6  1  0  0  0  0
 20 25  1  0  0  0  0
 22 28  1  0  0  0  0
 31 33  1  0  0  0  0
 36 37  2  0  0  0  0
M  END
>  <S/N>
622

>  <Compound ID>
C_639

>  <PubChem CID>
155568325

>  <Isomeric SMILES>
CC1=CC(=CC(=C1)N\2C(=O)/C(=C/C3=CC=C(C=C3)F)/S/C2=N\NC(=O)C4=CC5=CC=CC=C5OC4=O)C

>  <IC50 (�M)>
0.09

>  <pIC50>
7.05

$$$$
C_640
Actelion Java MolfileCreator 1.0

 36 40  0  0  0  0  0  0  0  0999 V2000
    4.3776   -0.0933   -0.0000 S   0  0  0  0  0  0  0  0  0  0  0  0
    3.4641   -0.5000   -0.0000 C   0  0  0  0  0  0  0  0  0  0  0  0
    5.0468   -0.8364   -0.0000 C   0  0  0  0  0  0  0  0  0  0  0  0
    2.5981   -0.0000   -0.0000 N   0  0  0  0  0  0  0  0  0  0  0  0
    3.5686   -1.4945   -0.0000 N   0  0  0  0  0  0  0  0  0  0  0  0
    4.5468   -1.7024   -0.0000 C   0  0  0  0  0  0  0  0  0  0  0  0
    6.0413   -0.7319   -0.0000 C   0  0  0  0  0  0  0  0  0  0  0  0
    2.5981    1.0000   -0.0000 N   0  0  0  0  0  0  0  0  0  0  0  0
    2.8255   -2.1637   -0.0000 C   0  0  0  0  0  0  0  0  0  0  0  0
    4.9535   -2.6160   -0.0000 O   0  0  0  0  0  0  0  0  0  0  0  0
    6.4480    0.1817   -0.0000 C   0  0  0  0  0  0  0  0  0  0  0  0
    1.7321    1.5000   -0.0000 C   0  0  0  0  0  0  0  0  0  0  0  0
    1.8744   -1.8546   -0.0000 C   0  0  0  0  0  0  0  0  0  0  0  0
    3.0334   -3.1418   -0.0000 C   0  0  0  0  0  0  0  0  0  0  0  0
    7.4426    0.2862   -0.0000 C   0  0  0  0  0  0  0  0  0  0  0  0
    5.8603    0.9907   -0.0000 C   0  0  0  0  0  0  0  0  0  0  0  0
    0.8660    1.0000   -0.0000 O   0  0  0  0  0  0  0  0  0  0  0  0
    1.7321    2.5000   -0.0000 C   0  0  0  0  0  0  0  0  0  0  0  0
    1.1313   -2.5238   -0.0000 C   0  0  0  0  0  0  0  0  0  0  0  0
    2.2903   -3.8109   -0.0000 C   0  0  0  0  0  0  0  0  0  0  0  0
    7.8493    1.1997   -0.0000 C   0  0  0  0  0  0  0  0  0  0  0  0
    6.2670    1.9042   -0.0000 C   0  0  0  0  0  0  0  0  0  0  0  0
    0.8660    3.0000   -0.0000 C   0  0  0  0  0  0  0  0  0  0  0  0
    2.5981    3.0000   -0.0000 C   0  0  0  0  0  0  0  0  0  0  0  0
    1.3392   -3.5019   -0.0000 C   0  0  0  0  0  0  0  0  0  0  0  0
    0.1802   -2.2147   -0.0000 C   0  0  0  0  0  0  0  0  0  0  0  0
    7.2615    2.0088   -0.0000 C   0  0  0  0  0  0  0  0  0  0  0  0
   -0.0000    2.5000   -0.0000 O   0  0  0  0  0  0  0  0  0  0  0  0
    0.8660    4.0000   -0.0000 O   0  0  0  0  0  0  0  0  0  0  0  0
    2.5981    4.0000   -0.0000 C   0  0  0  0  0  0  0  0  0  0  0  0
    7.6682    2.9223   -0.0000 F   0  0  0  0  0  0  0  0  0  0  0  0
    1.7321    4.5000   -0.0000 C   0  0  0  0  0  0  0  0  0  0  0  0
    3.4641    4.5000   -0.0000 C   0  0  0  0  0  0  0  0  0  0  0  0
    1.7321    5.5000   -0.0000 C   0  0  0  0  0  0  0  0  0  0  0  0
    3.4641    5.5000   -0.0000 C   0  0  0  0  0  0  0  0  0  0  0  0
    2.5981    6.0000   -0.0000 C   0  0  0  0  0  0  0  0  0  0  0  0
  1  2  1  0  0  0  0
  1  3  1  0  0  0  0
  2  4  2  0  0  0  0
  2  5  1  0  0  0  0
  3  6  1  0  0  0  0
  3  7  2  0  0  0  0
  4  8  1  0  0  0  0
  5  9  1  0  0  0  0
  6 10  2  0  0  0  0
  7 11  1  0  0  0  0
  8 12  1  0  0  0  0
  9 13  2  0  0  0  0
  9 14  1  0  0  0  0
 11 15  2  0  0  0  0
 11 16  1  0  0  0  0
 12 17  2  0  0  0  0
 12 18  1  0  0  0  0
 13 19  1  0  0  0  0
 14 20  2  0  0  0  0
 15 21  1  0  0  0  0
 16 22  2  0  0  0  0
 18 23  1  0  0  0  0
 18 24  2  0  0  0  0
 19 25  2  0  0  0  0
 19 26  1  0  0  0  0
 21 27  2  0  0  0  0
 23 28  2  0  0  0  0
 23 29  1  0  0  0  0
 24 30  1  0  0  0  0
 27 31  1  0  0  0  0
 29 32  1  0  0  0  0
 30 33  2  0  0  0  0
 32 34  2  0  0  0  0
 33 35  1  0  0  0  0
 34 36  1  0  0  0  0
  5  6  1  0  0  0  0
 20 25  1  0  0  0  0
 22 27  1  0  0  0  0
 30 32  1  0  0  0  0
 35 36  2  0  0  0  0
M  END
>  <S/N>
623

>  <Compound ID>
C_640

>  <PubChem CID>
155568837

>  <Isomeric SMILES>
CC1=CC(=CC=C1)N\2C(=O)/C(=C/C3=CC=C(C=C3)F)/S/C2=N\NC(=O)C4=CC5=CC=CC=C5OC4=O

>  <IC50 (�M)>
0.09

>  <pIC50>
7.05

$$$$
C_641
Actelion Java MolfileCreator 1.0

 56 62  0  0  0  0  0  0  0  0999 V2000
    7.7942   -2.2500   -0.0000 Cl  0  0  0  0  0  0  0  0  0  0  0  0
    7.7942   -0.7500   -0.0000 C   0  0  0  0  0  0  0  0  0  0  0  0
    9.0933   -0.0000   -0.0000 C   0  0  0  0  0  0  0  0  0  0  0  0
    6.4952   -0.0000   -0.0000 C   0  0  0  0  0  0  0  0  0  0  0  0
   10.3923   -0.7500   -0.0000 Cl  0  0  0  0  0  0  0  0  0  0  0  0
    9.0933    1.5000   -0.0000 C   0  0  0  0  0  0  0  0  0  0  0  0
    5.1962   -0.7500   -0.0000 S   0  0  0  0  0  0  0  0  0  0  0  0
    6.4952    1.5000   -0.0000 C   0  0  0  0  0  0  0  0  0  0  0  0
    7.7942    2.2500   -0.0000 C   0  0  0  0  0  0  0  0  0  0  0  0
    4.4462   -2.0490   -0.0000 O   0  0  0  0  0  0  0  0  0  0  0  0
    5.9462   -2.0490   -0.0000 O   0  0  0  0  0  0  0  0  0  0  0  0
    3.8971   -0.0000   -0.0000 N   0  0  0  0  0  0  0  0  0  0  0  0
    2.5981   -0.7500   -0.0000 N   0  0  0  0  0  0  0  0  0  0  0  0
    1.2990   -0.0000   -0.0000 C   0  0  0  0  0  0  0  0  0  0  0  0
    1.2990    1.5000   -0.0000 O   0  0  0  0  0  0  0  0  0  0  0  0
    0.0000   -0.7500   -0.0000 C   0  0  0  0  0  0  0  0  0  0  0  0
   -0.0000   -2.2500   -0.0000 C   0  0  0  0  0  0  0  0  0  0  0  0
   -1.2990    0.0000   -0.0000 C   0  0  0  0  0  0  0  0  0  0  0  0
   -1.2990   -3.0000   -0.0000 C   0  0  0  0  0  0  0  0  0  0  0  0
   -2.5981   -0.7500   -0.0000 C   0  0  0  0  0  0  0  0  0  0  0  0
   -2.5981   -2.2500   -0.0000 C   0  0  0  0  0  0  0  0  0  0  0  0
   -1.6109   -4.4672   -0.0000 C   0  0  0  0  0  0  0  0  0  0  0  0
   -3.7128   -3.2537   -0.0000 N   0  0  0  0  0  0  0  0  0  0  0  0
   -3.1027   -4.6240   -0.0000 C   0  0  0  0  0  0  0  0  0  0  0  0
   -0.6072   -5.5819   -0.0000 C   0  0  0  0  0  0  0  0  0  0  0  0
   -1.0707   -7.0085   -0.0000 C   0  0  0  0  0  0  0  0  0  0  0  0
    0.8600   -5.2701   -0.0000 C   0  0  0  0  0  0  0  0  0  0  0  0
   -2.5380   -7.3204   -0.0000 C   0  0  0  0  0  0  0  0  0  0  0  0
   -0.0670   -8.1233   -0.0000 C   0  0  0  0  0  0  0  0  0  0  0  0
    1.9747   -6.2738   -0.0000 C   0  0  0  0  0  0  0  0  0  0  0  0
    1.4701   -3.8998   -0.0000 C   0  0  0  0  0  0  0  0  0  0  0  0
   -3.0015   -8.7470   -0.0000 C   0  0  0  0  0  0  0  0  0  0  0  0
   -0.5306   -9.5498   -0.0000 C   0  0  0  0  0  0  0  0  0  0  0  0
    3.2738   -5.5238   -0.0000 C   0  0  0  0  0  0  0  0  0  0  0  0
    1.9747   -7.7738   -0.0000 C   0  0  0  0  0  0  0  0  0  0  0  0
    2.9619   -4.0566   -0.0000 N   0  0  0  0  0  0  0  0  0  0  0  0
   -1.9978   -9.8617   -0.0000 C   0  0  0  0  0  0  0  0  0  0  0  0
    4.5728   -6.2738   -0.0000 C   0  0  0  0  0  0  0  0  0  0  0  0
    3.2738   -8.5238   -0.0000 C   0  0  0  0  0  0  0  0  0  0  0  0
   -2.4613  -11.2883   -0.0000 C   0  0  0  0  0  0  0  0  0  0  0  0
    4.5728   -7.7738   -0.0000 C   0  0  0  0  0  0  0  0  0  0  0  0
    3.2738  -10.0238   -0.0000 C   0  0  0  0  0  0  0  0  0  0  0  0
    4.5728  -10.7738   -0.0000 O   0  0  0  0  0  0  0  0  0  0  0  0
    1.9747  -10.7738   -0.0000 N   0  0  0  0  0  0  0  0  0  0  0  0
    1.9747  -12.2738   -0.0000 N   0  0  0  0  0  0  0  0  0  0  0  0
    0.6757  -13.0238   -0.0000 S   0  0  0  0  0  0  0  0  0  0  0  0
   -0.0743  -11.7248   -0.0000 O   0  0  0  0  0  0  0  0  0  0  0  0
   -0.8243  -13.0238   -0.0000 O   0  0  0  0  0  0  0  0  0  0  0  0
    0.6757  -14.5238   -0.0000 C   0  0  0  0  0  0  0  0  0  0  0  0
   -0.6233  -15.2738   -0.0000 C   0  0  0  0  0  0  0  0  0  0  0  0
    1.9747  -15.2738   -0.0000 C   0  0  0  0  0  0  0  0  0  0  0  0
   -1.9224  -14.5238   -0.0000 Cl  0  0  0  0  0  0  0  0  0  0  0  0
   -0.6233  -16.7738   -0.0000 C   0  0  0  0  0  0  0  0  0  0  0  0
    1.9747  -16.7738   -0.0000 C   0  0  0  0  0  0  0  0  0  0  0  0
   -1.9224  -17.5238   -0.0000 Cl  0  0  0  0  0  0  0  0  0  0  0  0
    0.6757  -17.5238   -0.0000 C   0  0  0  0  0  0  0  0  0  0  0  0
  1  2  1  0  0  0  0
  2  3  2  0  0  0  0
  2  4  1  0  0  0  0
  3  5  1  0  0  0  0
  3  6  1  0  0  0  0
  4  7  1  0  0  0  0
  4  8  2  0  0  0  0
  6  9  2  0  0  0  0
  7 10  2  0  0  0  0
  7 11  2  0  0  0  0
  7 12  1  0  0  0  0
 12 13  1  0  0  0  0
 13 14  1  0  0  0  0
 14 15  2  0  0  0  0
 14 16  1  0  0  0  0
 16 17  2  0  0  0  0
 16 18  1  0  0  0  0
 17 19  1  0  0  0  0
 18 20  2  0  0  0  0
 19 21  2  0  0  0  0
 19 22  1  0  0  0  0
 21 23  1  0  0  0  0
 22 24  2  0  0  0  0
 22 25  1  0  0  0  0
 25 26  1  0  0  0  0
 25 27  1  0  0  0  0
 26 28  2  0  0  0  0
 26 29  1  0  0  0  0
 27 30  1  0  0  0  0
 27 31  2  0  0  0  0
 28 32  1  0  0  0  0
 29 33  2  0  0  0  0
 30 34  2  0  0  0  0
 30 35  1  0  0  0  0
 31 36  1  0  0  0  0
 32 37  2  0  0  0  0
 34 38  1  0  0  0  0
 35 39  2  0  0  0  0
 37 40  1  0  0  0  0
 38 41  2  0  0  0  0
 39 42  1  0  0  0  0
 42 43  2  0  0  0  0
 42 44  1  0  0  0  0
 44 45  1  0  0  0  0
 45 46  1  0  0  0  0
 46 47  2  0  0  0  0
 46 48  2  0  0  0  0
 46 49  1  0  0  0  0
 49 50  2  0  0  0  0
 49 51  1  0  0  0  0
 50 52  1  0  0  0  0
 50 53  1  0  0  0  0
 51 54  2  0  0  0  0
 53 55  1  0  0  0  0
 53 56  2  0  0  0  0
  8  9  1  0  0  0  0
 20 21  1  0  0  0  0
 23 24  1  0  0  0  0
 33 37  1  0  0  0  0
 34 36  1  0  0  0  0
 39 41  1  0  0  0  0
 54 56  1  0  0  0  0
M  END
>  <S/N>
624

>  <Compound ID>
C_641

>  <PubChem CID>
155569088

>  <Isomeric SMILES>
CC1=CC=C(C=C1)C(C2=CNC3=C2C=C(C=C3)C(=O)NNS(=O)(=O)C4=C(C(=CC=C4)Cl)Cl)C5=CNC6=C5C=C(C=C6)C(=O)NNS(=O)(=O)C7=C(C(=CC=C7)Cl)Cl

>  <IC50 (�M)>
0.1

>  <pIC50>
7

$$$$
C_642
Actelion Java MolfileCreator 1.0

 31 35  0  0  0  0  0  0  0  0999 V2000
    4.3301   -2.0000   -0.0000 Cl  0  0  0  0  0  0  0  0  0  0  0  0
    3.4641   -1.5000   -0.0000 C   0  0  0  0  0  0  0  0  0  0  0  0
    3.4641   -0.5000   -0.0000 C   0  0  0  0  0  0  0  0  0  0  0  0
    2.5981   -2.0000   -0.0000 C   0  0  0  0  0  0  0  0  0  0  0  0
    2.5981    0.0000   -0.0000 C   0  0  0  0  0  0  0  0  0  0  0  0
    1.7321   -1.5000   -0.0000 C   0  0  0  0  0  0  0  0  0  0  0  0
    1.7321   -0.5000   -0.0000 C   0  0  0  0  0  0  0  0  0  0  0  0
    0.8660   -0.0000   -0.0000 C   0  0  0  0  0  0  0  0  0  0  0  0
    0.0000   -0.5000   -0.0000 N   0  0  0  0  0  0  0  0  0  0  0  0
   -0.9135   -0.0933   -0.0000 C   0  0  0  0  0  0  0  0  0  0  0  0
   -0.1045   -1.4945   -0.0000 C   0  0  0  0  0  0  0  0  0  0  0  0
   -1.5827   -0.8364   -0.0000 N   0  0  0  0  0  0  0  0  0  0  0  0
   -1.1215    0.8849   -0.0000 C   0  0  0  0  0  0  0  0  0  0  0  0
   -1.0827   -1.7024   -0.0000 C   0  0  0  0  0  0  0  0  0  0  0  0
    0.5646   -2.2377   -0.0000 C   0  0  0  0  0  0  0  0  0  0  0  0
   -0.3783    1.5540   -0.0000 C   0  0  0  0  0  0  0  0  0  0  0  0
   -2.0725    1.1939   -0.0000 C   0  0  0  0  0  0  0  0  0  0  0  0
   -1.3917   -2.6535   -0.0000 C   0  0  0  0  0  0  0  0  0  0  0  0
    0.2556   -3.1887   -0.0000 C   0  0  0  0  0  0  0  0  0  0  0  0
   -0.5862    2.5322   -0.0000 C   0  0  0  0  0  0  0  0  0  0  0  0
   -2.2804    2.1720   -0.0000 C   0  0  0  0  0  0  0  0  0  0  0  0
   -0.7226   -3.3966   -0.0000 C   0  0  0  0  0  0  0  0  0  0  0  0
   -1.5373    2.8412   -0.0000 C   0  0  0  0  0  0  0  0  0  0  0  0
   -1.7452    3.8193   -0.0000 C   0  0  0  0  0  0  0  0  0  0  0  0
   -2.6962    4.1283   -0.0000 C   0  0  0  0  0  0  0  0  0  0  0  0
   -3.5053    3.5406   -0.0000 S   0  0  0  0  0  0  0  0  0  0  0  0
   -3.0053    5.0794   -0.0000 C   0  0  0  0  0  0  0  0  0  0  0  0
   -4.3143    4.1283   -0.0000 C   0  0  0  0  0  0  0  0  0  0  0  0
   -2.4175    5.8884   -0.0000 O   0  0  0  0  0  0  0  0  0  0  0  0
   -4.0053    5.0794   -0.0000 N   0  0  0  0  0  0  0  0  0  0  0  0
   -5.2653    3.8193   -0.0000 O   0  0  0  0  0  0  0  0  0  0  0  0
  1  2  1  0  0  0  0
  2  3  2  0  0  0  0
  2  4  1  0  0  0  0
  3  5  1  0  0  0  0
  4  6  2  0  0  0  0
  5  7  2  0  0  0  0
  7  8  1  0  0  0  0
  8  9  1  0  0  0  0
  9 10  1  0  0  0  0
  9 11  1  0  0  0  0
 10 12  2  0  0  0  0
 10 13  1  0  0  0  0
 11 14  2  0  0  0  0
 11 15  1  0  0  0  0
 13 16  2  0  0  0  0
 13 17  1  0  0  0  0
 14 18  1  0  0  0  0
 15 19  2  0  0  0  0
 16 20  1  0  0  0  0
 17 21  2  0  0  0  0
 18 22  2  0  0  0  0
 20 23  2  0  0  0  0
 23 24  1  0  0  0  0
 24 25  2  0  0  0  0
 25 26  1  0  0  0  0
 25 27  1  0  0  0  0
 26 28  1  0  0  0  0
 27 29  2  0  0  0  0
 27 30  1  0  0  0  0
 28 31  2  0  0  0  0
  6  7  1  0  0  0  0
 12 14  1  0  0  0  0
 19 22  1  0  0  0  0
 21 23  1  0  0  0  0
 28 30  1  0  0  0  0
M  END
>  <S/N>
625

>  <Compound ID>
C_642

>  <PubChem CID>
155569623

>  <Isomeric SMILES>
C1=CC=C2C(=C1)N=C(N2CC3=CC=C(C=C3)Cl)C4=CC=C(C=C4)/C=C\5/C(=O)NC(=O)S5

>  <IC50 (�M)>
0.54

>  <pIC50>
6.27

$$$$
C_643
Actelion Java MolfileCreator 1.0

 30 33  0  0  0  0  0  0  0  0999 V2000
    2.7026    0.9945   -0.0000 S   0  0  0  0  0  0  0  0  0  0  0  0
    2.5981   -0.0000   -0.0000 C   0  0  0  0  0  0  0  0  0  0  0  0
    3.6808    1.2024   -0.0000 C   0  0  0  0  0  0  0  0  0  0  0  0
    3.5116   -0.4067   -0.0000 N   0  0  0  0  0  0  0  0  0  0  0  0
    1.7321   -0.5000   -0.0000 N   0  0  0  0  0  0  0  0  0  0  0  0
    4.1808    0.3364   -0.0000 N   0  0  0  0  0  0  0  0  0  0  0  0
    4.0875    2.1160   -0.0000 C   0  0  0  0  0  0  0  0  0  0  0  0
    0.8660   -0.0000   -0.0000 C   0  0  0  0  0  0  0  0  0  0  0  0
    5.0820    2.2205   -0.0000 C   0  0  0  0  0  0  0  0  0  0  0  0
    3.4997    2.9250   -0.0000 C   0  0  0  0  0  0  0  0  0  0  0  0
    0.0000   -0.5000   -0.0000 C   0  0  0  0  0  0  0  0  0  0  0  0
    5.4887    3.1341   -0.0000 C   0  0  0  0  0  0  0  0  0  0  0  0
    3.9064    3.8385   -0.0000 C   0  0  0  0  0  0  0  0  0  0  0  0
   -0.8660    0.0000   -0.0000 C   0  0  0  0  0  0  0  0  0  0  0  0
   -0.0000   -1.5000   -0.0000 C   0  0  0  0  0  0  0  0  0  0  0  0
    6.4833    3.2386   -0.0000 O   0  0  0  0  0  0  0  0  0  0  0  0
    4.9010    3.9431   -0.0000 C   0  0  0  0  0  0  0  0  0  0  0  0
   -1.7321   -0.5000   -0.0000 C   0  0  0  0  0  0  0  0  0  0  0  0
   -0.8660   -2.0000   -0.0000 C   0  0  0  0  0  0  0  0  0  0  0  0
    6.8900    4.1521   -0.0000 C   0  0  0  0  0  0  0  0  0  0  0  0
    5.3077    4.8566   -0.0000 O   0  0  0  0  0  0  0  0  0  0  0  0
   -1.7321   -1.5000   -0.0000 C   0  0  0  0  0  0  0  0  0  0  0  0
    6.3022    4.9611   -0.0000 C   0  0  0  0  0  0  0  0  0  0  0  0
   -2.5981   -2.0000   -0.0000 O   0  0  0  0  0  0  0  0  0  0  0  0
    6.7090    5.8747   -0.0000 C   0  0  0  0  0  0  0  0  0  0  0  0
    7.7035    5.9792   -0.0000 C   0  0  0  0  0  0  0  0  0  0  0  0
    6.1212    6.6837   -0.0000 C   0  0  0  0  0  0  0  0  0  0  0  0
    8.1102    6.8928   -0.0000 C   0  0  0  0  0  0  0  0  0  0  0  0
    6.5279    7.5973   -0.0000 C   0  0  0  0  0  0  0  0  0  0  0  0
    7.5224    7.7018   -0.0000 C   0  0  0  0  0  0  0  0  0  0  0  0
  1  2  1  0  0  0  0
  1  3  1  0  0  0  0
  2  4  2  0  0  0  0
  2  5  1  0  0  0  0
  3  6  2  0  0  0  0
  3  7  1  0  0  0  0
  5  8  2  0  0  0  0
  7  9  2  0  0  0  0
  7 10  1  0  0  0  0
  8 11  1  0  0  0  0
  9 12  1  0  0  0  0
 10 13  2  0  0  0  0
 11 14  2  0  0  0  0
 11 15  1  0  0  0  0
 12 16  1  0  0  0  0
 12 17  2  0  0  0  0
 14 18  1  0  0  0  0
 15 19  2  0  0  0  0
 16 20  1  0  0  0  0
 17 21  1  0  0  0  0
 18 22  2  0  0  0  0
 21 23  1  0  0  0  0
 22 24  1  0  0  0  0
 23 25  1  0  0  0  0
 25 26  2  0  0  0  0
 25 27  1  0  0  0  0
 26 28  1  0  0  0  0
 27 29  2  0  0  0  0
 28 30  2  0  0  0  0
  4  6  1  0  0  0  0
 13 17  1  0  0  0  0
 19 22  1  0  0  0  0
 29 30  1  0  0  0  0
M  END
>  <S/N>
626

>  <Compound ID>
C_643

>  <PubChem CID>
155569636

>  <Isomeric SMILES>
COC1=C(C=CC(=C1)C2=NN=C(S2)/N=C/C3=CC=C(C=C3)O)OCC4=CC=CC=C4

>  <IC50 (�M)>
2.3

>  <pIC50>
5.64

$$$$
